MODEL 1
REMARK VINA RESULT:   -13.711      0.000      0.000
REMARK ITER + INTRA:          -19.150
REMARK INTER:                 -18.701
REMARK INTRA:                  -0.449
REMARK UNBOUND:                 0.172
REMARK  7 active torsions:
REMARK  status: ('A' for Active; 'I' for Inactive)
REMARK    1  A    between atoms: C5_3  and  C7_7 
REMARK    2  A    between atoms: C9_11  and  N13_13 
REMARK    3  A    between atoms: N13_13  and  C14_15 
REMARK    4  A    between atoms: C16_19  and  N21_21 
REMARK       I    between atoms: N21_21  and  C22_23 
REMARK    5  A    between atoms: C22_23  and  C23_24 
REMARK    6  A    between atoms: C27_27  and  C46_30 
REMARK    7  A    between atoms: C46_30  and  N48_31 
ROOT
HETATM    1  C14 STI A 201      15.835  54.717  12.391  1.00 32.92     0.057 A 
HETATM    2  C19 STI A 201      16.909  54.563  11.403  1.00 28.09    -0.035 A 
HETATM    3  C18 STI A 201      17.895  53.544  11.627  1.00 26.77     0.011 A 
HETATM    4  C17 STI A 201      17.826  52.697  12.791  1.00 25.91     0.030 A 
HETATM    5  C16 STI A 201      16.782  52.842  13.751  1.00 30.34     0.037 A 
HETATM    6  C15 STI A 201      15.781  53.875  13.531  1.00 29.33     0.060 A 
HETATM    7  C20 STI A 201      17.030  55.437  10.133  1.00 26.25     0.050 C 
ENDROOT
BRANCH   5   8
HETATM    8  N21 STI A 201      16.774  51.952  14.885  1.00 31.22    -0.323 N 
HETATM    9  C22 STI A 201      15.755  51.748  15.801  1.00 33.27     0.256 C 
HETATM   10  O29 STI A 201      14.769  52.462  15.908  1.00 38.89    -0.267 OA
HETATM   11  H21 STI A 201      17.623  51.405  15.031  1.00  0.00     0.169 HD
BRANCH   9  12
HETATM   12  C23 STI A 201      15.852  50.592  16.744  1.00 31.14     0.032 A 
HETATM   13  C25 STI A 201      17.117  49.882  16.948  1.00 34.22     0.017 A 
HETATM   14  C26 STI A 201      17.178  48.759  17.850  1.00 31.64     0.010 A 
HETATM   15  C27 STI A 201      15.970  48.341  18.557  1.00 38.05    -0.030 A 
HETATM   16  C28 STI A 201      14.730  49.067  18.340  1.00 29.43     0.010 A 
HETATM   17  C29 STI A 201      14.665  50.167  17.456  1.00 34.20     0.017 A 
BRANCH  15  18
HETATM   18  C46 STI A 201      15.939  47.142  19.523  1.00 35.44     0.311 C 
BRANCH  18  19
HETATM   19  N48 STI A 201      17.206  46.807  20.239  1.00 46.28     0.095 N 
HETATM   20  C53 STI A 201      17.494  47.827  21.313  1.00 45.06     0.300 C 
HETATM   21  C52 STI A 201      18.820  47.508  22.057  1.00 46.67     0.264 C 
HETATM   22  N51 STI A 201      18.785  46.106  22.650  1.00 48.74    -0.072 N 
HETATM   23  H51 STI A 201      17.942  46.069  23.379  1.00  0.00     0.279 HD
HETATM   24  C50 STI A 201      18.511  45.059  21.570  1.00 45.31     0.264 C 
HETATM   25  C54 STI A 201      20.016  45.755  23.373  1.00 49.83     0.269 C 
HETATM   26  C49 STI A 201      17.169  45.401  20.844  1.00 44.33     0.300 C 
ENDBRANCH  18  19
ENDBRANCH  15  18
ENDBRANCH   9  12
ENDBRANCH   5   8
BRANCH   1  27
HETATM   27  N13 STI A 201      14.849  55.693  12.230  1.00 32.90    -0.188 N 
HETATM   28  H13 STI A 201      13.940  55.432  11.848  1.00  0.00     0.184 HD
BRANCH  27  29
HETATM   29  C9  STI A 201      15.091  57.011  12.582  1.00 33.83     0.727 A 
HETATM   30  N10 STI A 201      16.312  57.423  13.085  1.00 32.08    -0.075 NA
HETATM   31  C11 STI A 201      16.534  58.741  13.421  1.00 35.42     0.139 A 
HETATM   32  C12 STI A 201      15.509  59.699  13.253  1.00 30.85     0.053 A 
HETATM   33  C7  STI A 201      14.256  59.238  12.727  1.00 33.05     0.089 A 
HETATM   34  N8  STI A 201      14.096  57.906  12.413  1.00 33.44    -0.062 NA
BRANCH  33  35
HETATM   35  C5  STI A 201      13.078  60.130  12.488  1.00 33.74     0.011 A 
HETATM   36  C4  STI A 201      11.998  59.658  11.634  1.00 31.40     0.130 A 
HETATM   37  N3  STI A 201      10.893  60.471  11.401  1.00 33.76    -0.272 NA
HETATM   38  C2  STI A 201      10.767  61.751  11.960  1.00 35.46     0.116 A 
HETATM   39  C1  STI A 201      11.800  62.281  12.811  1.00 35.17     0.020 A 
HETATM   40  C6  STI A 201      12.959  61.459  13.074  1.00 32.96     0.017 A 
ENDBRANCH  33  35
ENDBRANCH  27  29
ENDBRANCH   1  27
TORSDOF 7
ENDMDL
MODEL 2
REMARK VINA RESULT:   -11.731      2.985     12.425
REMARK ITER + INTRA:          -16.360
REMARK INTER:                 -15.398
REMARK INTRA:                  -0.962
REMARK UNBOUND:                 0.172
REMARK  7 active torsions:
REMARK  status: ('A' for Active; 'I' for Inactive)
REMARK    1  A    between atoms: C5_3  and  C7_7 
REMARK    2  A    between atoms: C9_11  and  N13_13 
REMARK    3  A    between atoms: N13_13  and  C14_15 
REMARK    4  A    between atoms: C16_19  and  N21_21 
REMARK       I    between atoms: N21_21  and  C22_23 
REMARK    5  A    between atoms: C22_23  and  C23_24 
REMARK    6  A    between atoms: C27_27  and  C46_30 
REMARK    7  A    between atoms: C46_30  and  N48_31 
ROOT
HETATM    1  C14 STI A 201      16.855  48.700  17.626  1.00 32.92     0.057 A 
HETATM    2  C19 STI A 201      15.536  48.417  18.207  1.00 28.09    -0.035 A 
HETATM    3  C18 STI A 201      14.472  49.347  17.957  1.00 26.77     0.011 A 
HETATM    4  C17 STI A 201      14.697  50.524  17.156  1.00 25.91     0.030 A 
HETATM    5  C16 STI A 201      15.975  50.800  16.588  1.00 30.34     0.037 A 
HETATM    6  C15 STI A 201      17.058  49.862  16.840  1.00 29.33     0.060 A 
HETATM    7  C20 STI A 201      15.236  47.168  19.068  1.00 26.25     0.050 C 
ENDROOT
BRANCH   5   8
HETATM    8  N21 STI A 201      16.121  51.993  15.791  1.00 31.22    -0.323 N 
HETATM    9  C22 STI A 201      15.637  52.228  14.514  1.00 33.27     0.256 C 
HETATM   10  O29 STI A 201      15.185  51.365  13.777  1.00 38.89    -0.267 OA
HETATM   11  H21 STI A 201      16.644  52.756  16.219  1.00  0.00     0.169 HD
BRANCH   9  12
HETATM   12  C23 STI A 201      15.673  53.621  13.973  1.00 31.14     0.032 A 
HETATM   13  C25 STI A 201      16.935  54.353  13.844  1.00 34.22     0.017 A 
HETATM   14  C26 STI A 201      16.940  55.701  13.335  1.00 31.64     0.010 A 
HETATM   15  C27 STI A 201      15.677  56.326  12.951  1.00 38.05    -0.030 A 
HETATM   16  C28 STI A 201      14.440  55.575  13.085  1.00 29.43     0.010 A 
HETATM   17  C29 STI A 201      14.431  54.254  13.584  1.00 34.20     0.017 A 
BRANCH  15  18
HETATM   18  C46 STI A 201      15.586  57.769  12.418  1.00 35.44     0.311 C 
BRANCH  18  19
HETATM   19  N48 STI A 201      14.316  58.513  12.674  1.00 46.28     0.095 N 
HETATM   20  C53 STI A 201      14.610  59.897  13.200  1.00 45.06     0.300 C 
HETATM   21  C52 STI A 201      13.300  60.682  13.493  1.00 46.67     0.264 C 
HETATM   22  N51 STI A 201      12.426  60.759  12.249  1.00 48.74    -0.072 N 
HETATM   23  H51 STI A 201      13.004  61.298  11.463  1.00  0.00     0.279 HD
HETATM   24  C50 STI A 201      12.105  59.362  11.714  1.00 45.31     0.264 C 
HETATM   25  C54 STI A 201      11.175  61.499  12.470  1.00 49.83     0.269 C 
HETATM   26  C49 STI A 201      13.439  58.600  11.422  1.00 44.33     0.300 C 
ENDBRANCH  18  19
ENDBRANCH  15  18
ENDBRANCH   9  12
ENDBRANCH   5   8
BRANCH   1  27
HETATM   27  N13 STI A 201      17.930  47.833  17.836  1.00 32.90    -0.188 N 
HETATM   28  H13 STI A 201      17.984  46.961  17.310  1.00  0.00     0.184 HD
BRANCH  27  29
HETATM   29  C9  STI A 201      18.924  48.146  18.750  1.00 33.83     0.727 A 
HETATM   30  N10 STI A 201      18.924  47.637  20.036  1.00 32.08    -0.075 NA
HETATM   31  C11 STI A 201      19.926  47.955  20.926  1.00 35.42     0.139 A 
HETATM   32  C12 STI A 201      20.979  48.811  20.533  1.00 30.85     0.053 A 
HETATM   33  C7  STI A 201      20.949  49.319  19.192  1.00 33.05     0.089 A 
HETATM   34  N8  STI A 201      19.918  48.967  18.351  1.00 33.44    -0.062 NA
BRANCH  33  35
HETATM   35  C5  STI A 201      21.993  50.233  18.628  1.00 33.74     0.011 A 
HETATM   36  C4  STI A 201      21.756  51.668  18.642  1.00 31.40     0.130 A 
HETATM   37  N3  STI A 201      22.713  52.534  18.123  1.00 33.76    -0.272 NA
HETATM   38  C2  STI A 201      23.922  52.081  17.575  1.00 35.46     0.116 A 
HETATM   39  C1  STI A 201      24.219  50.674  17.526  1.00 35.17     0.020 A 
HETATM   40  C6  STI A 201      23.245  49.749  18.059  1.00 32.96     0.017 A 
ENDBRANCH  33  35
ENDBRANCH  27  29
ENDBRANCH   1  27
TORSDOF 7
ENDMDL
MODEL 3
REMARK VINA RESULT:   -11.487      3.878     12.287
REMARK ITER + INTRA:          -16.016
REMARK INTER:                 -15.072
REMARK INTRA:                  -0.944
REMARK UNBOUND:                 0.172
REMARK  7 active torsions:
REMARK  status: ('A' for Active; 'I' for Inactive)
REMARK    1  A    between atoms: C5_3  and  C7_7 
REMARK    2  A    between atoms: C9_11  and  N13_13 
REMARK    3  A    between atoms: N13_13  and  C14_15 
REMARK    4  A    between atoms: C16_19  and  N21_21 
REMARK       I    between atoms: N21_21  and  C22_23 
REMARK    5  A    between atoms: C22_23  and  C23_24 
REMARK    6  A    between atoms: C27_27  and  C46_30 
REMARK    7  A    between atoms: C46_30  and  N48_31 
ROOT
HETATM    1  C14 STI A 201      18.478  48.527  19.017  1.00 32.92     0.057 A 
HETATM    2  C19 STI A 201      17.535  47.417  19.196  1.00 28.09    -0.035 A 
HETATM    3  C18 STI A 201      16.376  47.369  18.351  1.00 26.77     0.011 A 
HETATM    4  C17 STI A 201      16.150  48.386  17.353  1.00 25.91     0.030 A 
HETATM    5  C16 STI A 201      17.066  49.463  17.175  1.00 30.34     0.037 A 
HETATM    6  C15 STI A 201      18.241  49.519  18.031  1.00 29.33     0.060 A 
HETATM    7  C20 STI A 201      17.729  46.296  20.243  1.00 26.25     0.050 C 
ENDROOT
BRANCH   5   8
HETATM    8  N21 STI A 201      16.777  50.437  16.151  1.00 31.22    -0.323 N 
HETATM    9  C22 STI A 201      15.692  51.294  16.073  1.00 33.27     0.256 C 
HETATM   10  O29 STI A 201      14.689  51.204  16.765  1.00 38.89    -0.267 OA
HETATM   11  H21 STI A 201      17.456  50.502  15.392  1.00  0.00     0.169 HD
BRANCH   9  12
HETATM   12  C23 STI A 201      15.718  52.402  15.070  1.00 31.14     0.032 A 
HETATM   13  C25 STI A 201      16.706  52.426  13.989  1.00 34.22     0.017 A 
HETATM   14  C26 STI A 201      16.721  53.516  13.046  1.00 31.64     0.010 A 
HETATM   15  C27 STI A 201      15.741  54.591  13.180  1.00 38.05    -0.030 A 
HETATM   16  C28 STI A 201      14.768  54.540  14.259  1.00 29.43     0.010 A 
HETATM   17  C29 STI A 201      14.752  53.474  15.186  1.00 34.20     0.017 A 
BRANCH  15  18
HETATM   18  C46 STI A 201      15.696  55.804  12.231  1.00 35.44     0.311 C 
BRANCH  18  19
HETATM   19  N48 STI A 201      14.982  57.024  12.714  1.00 46.28     0.095 N 
HETATM   20  C53 STI A 201      15.917  58.207  12.750  1.00 45.06     0.300 C 
HETATM   21  C52 STI A 201      15.199  59.483  13.270  1.00 46.67     0.264 C 
HETATM   22  N51 STI A 201      13.974  59.798  12.422  1.00 48.74    -0.072 N 
HETATM   23  H51 STI A 201      14.323  59.978  11.379  1.00  0.00     0.279 HD
HETATM   24  C50 STI A 201      13.007  58.614  12.391  1.00 45.31     0.264 C 
HETATM   25  C54 STI A 201      13.259  61.003  12.868  1.00 49.83     0.269 C 
HETATM   26  C49 STI A 201      13.755  57.348  11.858  1.00 44.33     0.300 C 
ENDBRANCH  18  19
ENDBRANCH  15  18
ENDBRANCH   9  12
ENDBRANCH   5   8
BRANCH   1  27
HETATM   27  N13 STI A 201      19.622  48.629  19.811  1.00 32.90    -0.188 N 
HETATM   28  H13 STI A 201      19.530  48.855  20.801  1.00  0.00     0.184 HD
BRANCH  27  29
HETATM   29  C9  STI A 201      20.882  48.428  19.268  1.00 33.83     0.727 A 
HETATM   30  N10 STI A 201      21.399  47.162  19.065  1.00 32.08    -0.075 NA
HETATM   31  C11 STI A 201      22.650  46.985  18.516  1.00 35.42     0.139 A 
HETATM   32  C12 STI A 201      23.428  48.106  18.148  1.00 30.85     0.053 A 
HETATM   33  C7  STI A 201      22.861  49.404  18.370  1.00 33.05     0.089 A 
HETATM   34  N8  STI A 201      21.605  49.514  18.926  1.00 33.44    -0.062 NA
BRANCH  33  35
HETATM   35  C5  STI A 201      23.559  50.684  18.030  1.00 33.74     0.011 A 
HETATM   36  C4  STI A 201      23.232  51.887  18.783  1.00 31.40     0.130 A 
HETATM   37  N3  STI A 201      23.870  53.086  18.484  1.00 33.76    -0.272 NA
HETATM   38  C2  STI A 201      24.833  53.196  17.469  1.00 35.46     0.116 A 
HETATM   39  C1  STI A 201      25.200  52.047  16.684  1.00 35.17     0.020 A 
HETATM   40  C6  STI A 201      24.556  50.786  16.973  1.00 32.96     0.017 A 
ENDBRANCH  33  35
ENDBRANCH  27  29
ENDBRANCH   1  27
TORSDOF 7
ENDMDL
MODEL 4
REMARK VINA RESULT:   -11.069      2.530     12.619
REMARK ITER + INTRA:          -15.427
REMARK INTER:                 -14.643
REMARK INTRA:                  -0.785
REMARK UNBOUND:                 0.172
REMARK  7 active torsions:
REMARK  status: ('A' for Active; 'I' for Inactive)
REMARK    1  A    between atoms: C5_3  and  C7_7 
REMARK    2  A    between atoms: C9_11  and  N13_13 
REMARK    3  A    between atoms: N13_13  and  C14_15 
REMARK    4  A    between atoms: C16_19  and  N21_21 
REMARK       I    between atoms: N21_21  and  C22_23 
REMARK    5  A    between atoms: C22_23  and  C23_24 
REMARK    6  A    between atoms: C27_27  and  C46_30 
REMARK    7  A    between atoms: C46_30  and  N48_31 
ROOT
HETATM    1  C14 STI A 201      15.472  47.962  18.518  1.00 32.92     0.057 A 
HETATM    2  C19 STI A 201      14.161  47.792  19.155  1.00 28.09    -0.035 A 
HETATM    3  C18 STI A 201      13.155  48.787  18.912  1.00 26.77     0.011 A 
HETATM    4  C17 STI A 201      13.431  49.919  18.063  1.00 25.91     0.030 A 
HETATM    5  C16 STI A 201      14.702  50.086  17.441  1.00 30.34     0.037 A 
HETATM    6  C15 STI A 201      15.726  49.082  17.685  1.00 29.33     0.060 A 
HETATM    7  C20 STI A 201      13.807  46.595  20.068  1.00 26.25     0.050 C 
ENDROOT
BRANCH   5   8
HETATM    8  N21 STI A 201      14.900  51.239  16.598  1.00 31.22    -0.323 N 
HETATM    9  C22 STI A 201      15.982  51.522  15.781  1.00 33.27     0.256 C 
HETATM   10  O29 STI A 201      17.048  50.924  15.814  1.00 38.89    -0.267 OA
HETATM   11  H21 STI A 201      14.150  51.931  16.605  1.00  0.00     0.169 HD
BRANCH   9  12
HETATM   12  C23 STI A 201      15.870  52.639  14.795  1.00 31.14     0.032 A 
HETATM   13  C25 STI A 201      16.823  52.777  13.691  1.00 34.22     0.017 A 
HETATM   14  C26 STI A 201      16.702  53.874  12.763  1.00 31.64     0.010 A 
HETATM   15  C27 STI A 201      15.621  54.841  12.935  1.00 38.05    -0.030 A 
HETATM   16  C28 STI A 201      14.686  54.678  14.036  1.00 29.43     0.010 A 
HETATM   17  C29 STI A 201      14.802  53.604  14.948  1.00 34.20     0.017 A 
BRANCH  15  18
HETATM   18  C46 STI A 201      15.429  56.054  12.006  1.00 35.44     0.311 C 
BRANCH  18  19
HETATM   19  N48 STI A 201      14.693  57.230  12.560  1.00 46.28     0.095 N 
HETATM   20  C53 STI A 201      15.635  58.388  12.781  1.00 45.06     0.300 C 
HETATM   21  C52 STI A 201      14.892  59.617  13.377  1.00 46.67     0.264 C 
HETATM   22  N51 STI A 201      13.734  60.036  12.482  1.00 48.74    -0.072 N 
HETATM   23  H51 STI A 201      14.158  60.314  11.490  1.00  0.00     0.279 HD
HETATM   24  C50 STI A 201      12.761  58.876  12.262  1.00 45.31     0.264 C 
HETATM   25  C54 STI A 201      13.000  61.201  12.997  1.00 49.83     0.269 C 
HETATM   26  C49 STI A 201      13.533  57.659  11.657  1.00 44.33     0.300 C 
ENDBRANCH  18  19
ENDBRANCH  15  18
ENDBRANCH   9  12
ENDBRANCH   5   8
BRANCH   1  27
HETATM   27  N13 STI A 201      16.492  47.029  18.718  1.00 32.90    -0.188 N 
HETATM   28  H13 STI A 201      16.486  46.155  18.192  1.00  0.00     0.184 HD
BRANCH  27  29
HETATM   29  C9  STI A 201      17.512  47.277  19.623  1.00 33.83     0.727 A 
HETATM   30  N10 STI A 201      17.348  47.088  20.983  1.00 32.08    -0.075 NA
HETATM   31  C11 STI A 201      18.378  47.334  21.864  1.00 35.42     0.139 A 
HETATM   32  C12 STI A 201      19.629  47.784  21.386  1.00 30.85     0.053 A 
HETATM   33  C7  STI A 201      19.765  47.968  19.970  1.00 33.05     0.089 A 
HETATM   34  N8  STI A 201      18.697  47.708  19.141  1.00 33.44    -0.062 NA
BRANCH  33  35
HETATM   35  C5  STI A 201      21.026  48.436  19.311  1.00 33.74     0.011 A 
HETATM   36  C4  STI A 201      21.182  49.851  19.011  1.00 31.40     0.130 A 
HETATM   37  N3  STI A 201      22.346  50.307  18.401  1.00 33.76    -0.272 NA
HETATM   38  C2  STI A 201      23.400  49.449  18.052  1.00 35.46     0.116 A 
HETATM   39  C1  STI A 201      23.310  48.037  18.317  1.00 35.17     0.020 A 
HETATM   40  C6  STI A 201      22.114  47.534  18.952  1.00 32.96     0.017 A 
ENDBRANCH  33  35
ENDBRANCH  27  29
ENDBRANCH   1  27
TORSDOF 7
ENDMDL
MODEL 5
REMARK VINA RESULT:   -10.790      1.640     13.540
REMARK ITER + INTRA:          -15.034
REMARK INTER:                 -14.226
REMARK INTRA:                  -0.808
REMARK UNBOUND:                 0.172
REMARK  7 active torsions:
REMARK  status: ('A' for Active; 'I' for Inactive)
REMARK    1  A    between atoms: C5_3  and  C7_7 
REMARK    2  A    between atoms: C9_11  and  N13_13 
REMARK    3  A    between atoms: N13_13  and  C14_15 
REMARK    4  A    between atoms: C16_19  and  N21_21 
REMARK       I    between atoms: N21_21  and  C22_23 
REMARK    5  A    between atoms: C22_23  and  C23_24 
REMARK    6  A    between atoms: C27_27  and  C46_30 
REMARK    7  A    between atoms: C46_30  and  N48_31 
ROOT
HETATM    1  C14 STI A 201      16.650  48.520  17.651  1.00 32.92     0.057 A 
HETATM    2  C19 STI A 201      15.344  48.320  18.291  1.00 28.09    -0.035 A 
HETATM    3  C18 STI A 201      14.338  49.325  18.106  1.00 26.77     0.011 A 
HETATM    4  C17 STI A 201      14.606  50.498  17.311  1.00 25.91     0.030 A 
HETATM    5  C16 STI A 201      15.872  50.694  16.685  1.00 30.34     0.037 A 
HETATM    6  C15 STI A 201      16.897  49.679  16.871  1.00 29.33     0.060 A 
HETATM    7  C20 STI A 201      14.999  47.080  19.149  1.00 26.25     0.050 C 
ENDROOT
BRANCH   5   8
HETATM    8  N21 STI A 201      16.062  51.886  15.898  1.00 31.22    -0.323 N 
HETATM    9  C22 STI A 201      15.637  52.128  14.602  1.00 33.27     0.256 C 
HETATM   10  O29 STI A 201      15.211  51.271  13.843  1.00 38.89    -0.267 OA
HETATM   11  H21 STI A 201      16.573  52.645  16.351  1.00  0.00     0.169 HD
BRANCH   9  12
HETATM   12  C23 STI A 201      15.709  53.522  14.066  1.00 31.14     0.032 A 
HETATM   13  C25 STI A 201      16.976  54.256  14.025  1.00 34.22     0.017 A 
HETATM   14  C26 STI A 201      17.015  55.605  13.520  1.00 31.64     0.010 A 
HETATM   15  C27 STI A 201      15.780  56.229  13.050  1.00 38.05    -0.030 A 
HETATM   16  C28 STI A 201      14.538  55.476  13.097  1.00 29.43     0.010 A 
HETATM   17  C29 STI A 201      14.496  54.154  13.592  1.00 34.20     0.017 A 
BRANCH  15  18
HETATM   18  C46 STI A 201      15.724  57.672  12.514  1.00 35.44     0.311 C 
BRANCH  18  19
HETATM   19  N48 STI A 201      14.452  58.427  12.715  1.00 46.28     0.095 N 
HETATM   20  C53 STI A 201      14.739  59.849  13.132  1.00 45.06     0.300 C 
HETATM   21  C52 STI A 201      13.426  60.647  13.368  1.00 46.67     0.264 C 
HETATM   22  N51 STI A 201      12.548  60.624  12.124  1.00 48.74    -0.072 N 
HETATM   23  H51 STI A 201      13.121  61.104  11.297  1.00  0.00     0.279 HD
HETATM   24  C50 STI A 201      12.234  59.189  11.698  1.00 45.31     0.264 C 
HETATM   25  C54 STI A 201      11.294  61.372  12.290  1.00 49.83     0.269 C 
HETATM   26  C49 STI A 201      13.571  58.414  11.463  1.00 44.33     0.300 C 
ENDBRANCH  18  19
ENDBRANCH  15  18
ENDBRANCH   9  12
ENDBRANCH   5   8
BRANCH   1  27
HETATM   27  N13 STI A 201      17.671  47.578  17.796  1.00 32.90    -0.188 N 
HETATM   28  H13 STI A 201      17.640  46.714  17.255  1.00  0.00     0.184 HD
BRANCH  27  29
HETATM   29  C9  STI A 201      18.725  47.804  18.667  1.00 33.83     0.727 A 
HETATM   30  N10 STI A 201      19.623  48.839  18.480  1.00 32.08    -0.075 NA
HETATM   31  C11 STI A 201      20.659  49.050  19.363  1.00 35.42     0.139 A 
HETATM   32  C12 STI A 201      20.819  48.205  20.484  1.00 30.85     0.053 A 
HETATM   33  C7  STI A 201      19.869  47.142  20.650  1.00 33.05     0.089 A 
HETATM   34  N8  STI A 201      18.857  46.982  19.730  1.00 33.44    -0.062 NA
BRANCH  33  35
HETATM   35  C5  STI A 201      19.903  46.168  21.786  1.00 33.74     0.011 A 
HETATM   36  C4  STI A 201      20.938  46.304  22.800  1.00 31.40     0.130 A 
HETATM   37  N3  STI A 201      20.987  45.410  23.865  1.00 33.76    -0.272 NA
HETATM   38  C2  STI A 201      20.067  44.361  24.011  1.00 35.46     0.116 A 
HETATM   39  C1  STI A 201      19.020  44.167  23.043  1.00 35.17     0.020 A 
HETATM   40  C6  STI A 201      18.943  45.081  21.927  1.00 32.96     0.017 A 
ENDBRANCH  33  35
ENDBRANCH  27  29
ENDBRANCH   1  27
TORSDOF 7
ENDMDL
