MODEL 1
REMARK VINA RESULT:   -15.744      0.000      0.000
REMARK ITER + INTRA:          -18.795
REMARK INTER:                 -17.832
REMARK INTRA:                  -0.962
REMARK CONF_INDEPENDENT:        2.088
REMARK UNBOUND:                 0.962
REMARK  7 active torsions:
REMARK  status: ('A' for Active; 'I' for Inactive)
REMARK    1  A    between atoms: C5_3  and  C7_7 
REMARK    2  A    between atoms: C9_11  and  N13_13 
REMARK    3  A    between atoms: N13_13  and  C14_15 
REMARK    4  A    between atoms: C16_19  and  N21_21 
REMARK       I    between atoms: N21_21  and  C22_23 
REMARK    5  A    between atoms: C22_23  and  C23_24 
REMARK    6  A    between atoms: C27_27  and  C46_30 
REMARK    7  A    between atoms: C46_30  and  N48_31 
ROOT
HETATM    1  C14 STI A 201      16.008  54.806  12.118  1.00 32.92     0.057 A 
HETATM    2  C19 STI A 201      17.138  54.568  11.211  1.00 28.09    -0.035 A 
HETATM    3  C18 STI A 201      18.058  53.516  11.538  1.00 26.77     0.011 A 
HETATM    4  C17 STI A 201      17.872  52.717  12.723  1.00 25.91     0.030 A 
HETATM    5  C16 STI A 201      16.774  52.944  13.603  1.00 30.34     0.037 A 
HETATM    6  C15 STI A 201      15.839  54.010  13.279  1.00 29.33     0.060 A 
HETATM    7  C20 STI A 201      17.384  55.388   9.924  1.00 26.25     0.050 C 
ENDROOT
BRANCH   5   8
HETATM    8  N21 STI A 201      16.649  52.098  14.764  1.00 31.22    -0.323 N 
HETATM    9  C22 STI A 201      15.634  52.090  15.707  1.00 33.27     0.256 C 
HETATM   10  O29 STI A 201      14.782  52.960  15.813  1.00 38.89    -0.267 OA
HETATM   11  H21 STI A 201      17.399  51.422  14.908  1.00  0.00     0.169 HD
BRANCH   9  12
HETATM   12  C23 STI A 201      15.563  50.960  16.683  1.00 31.14     0.032 A 
HETATM   13  C25 STI A 201      14.300  50.591  17.328  1.00 34.22     0.017 A 
HETATM   14  C26 STI A 201      14.263  49.508  18.278  1.00 31.64     0.010 A 
HETATM   15  C27 STI A 201      15.494  48.784  18.588  1.00 38.05    -0.030 A 
HETATM   16  C28 STI A 201      16.732  49.168  17.929  1.00 29.43     0.010 A 
HETATM   17  C29 STI A 201      16.772  50.230  16.998  1.00 34.20     0.017 A 
BRANCH  15  18
HETATM   18  C46 STI A 201      15.552  47.629  19.605  1.00 35.44     0.311 C 
BRANCH  18  19
HETATM   19  N48 STI A 201      16.819  47.461  20.378  1.00 46.28     0.095 N 
HETATM   20  C53 STI A 201      17.058  48.654  21.270  1.00 45.06     0.300 C 
HETATM   21  C52 STI A 201      18.383  48.509  22.069  1.00 46.67     0.264 C 
HETATM   22  N51 STI A 201      18.385  47.225  22.886  1.00 48.74    -0.072 N 
HETATM   23  H51 STI A 201      17.533  47.280  23.603  1.00  0.00     0.279 HD
HETATM   24  C50 STI A 201      18.160  46.003  21.992  1.00 45.31     0.264 C 
HETATM   25  C54 STI A 201      19.616  47.040  23.668  1.00 49.83     0.269 C 
HETATM   26  C49 STI A 201      16.819  46.174  21.208  1.00 44.33     0.300 C 
ENDBRANCH  18  19
ENDBRANCH  15  18
ENDBRANCH   9  12
ENDBRANCH   5   8
BRANCH   1  27
HETATM   27  N13 STI A 201      15.081  55.817  11.855  1.00 32.90    -0.188 N 
HETATM   28  H13 STI A 201      14.286  55.625  11.246  1.00  0.00     0.184 HD
BRANCH  27  29
HETATM   29  C9  STI A 201      15.230  57.077  12.412  1.00 33.83     0.727 A 
HETATM   30  N10 STI A 201      16.375  57.448  13.093  1.00 32.08    -0.075 NA
HETATM   31  C11 STI A 201      16.505  58.709  13.633  1.00 35.42     0.139 A 
HETATM   32  C12 STI A 201      15.461  59.651  13.494  1.00 30.85     0.053 A 
HETATM   33  C7  STI A 201      14.288  59.234  12.781  1.00 33.05     0.089 A 
HETATM   34  N8  STI A 201      14.218  57.958  12.268  1.00 33.44    -0.062 NA
BRANCH  33  35
HETATM   35  C5  STI A 201      13.101  60.117  12.549  1.00 33.74     0.011 A 
HETATM   36  C4  STI A 201      12.002  59.620  11.734  1.00 31.40     0.130 A 
HETATM   37  N3  STI A 201      10.889  60.424  11.507  1.00 33.76    -0.272 NA
HETATM   38  C2  STI A 201      10.773  61.718  12.036  1.00 35.46     0.116 A 
HETATM   39  C1  STI A 201      11.825  62.272  12.847  1.00 35.17     0.020 A 
HETATM   40  C6  STI A 201      12.992  61.461  13.102  1.00 32.96     0.017 A 
ENDBRANCH  33  35
ENDBRANCH  27  29
ENDBRANCH   1  27
TORSDOF 7
ENDMDL
MODEL 2
REMARK VINA RESULT:   -14.437      1.309      1.798
REMARK ITER + INTRA:          -17.522
REMARK INTER:                 -16.526
REMARK INTRA:                  -0.996
REMARK CONF_INDEPENDENT:        2.088
REMARK UNBOUND:                 0.996
REMARK  7 active torsions:
REMARK  status: ('A' for Active; 'I' for Inactive)
REMARK    1  A    between atoms: C5_3  and  C7_7 
REMARK    2  A    between atoms: C9_11  and  N13_13 
REMARK    3  A    between atoms: N13_13  and  C14_15 
REMARK    4  A    between atoms: C16_19  and  N21_21 
REMARK       I    between atoms: N21_21  and  C22_23 
REMARK    5  A    between atoms: C22_23  and  C23_24 
REMARK    6  A    between atoms: C27_27  and  C46_30 
REMARK    7  A    between atoms: C46_30  and  N48_31 
ROOT
HETATM    1  C14 STI A 201      16.306  55.866  12.578  1.00 32.92     0.057 A 
HETATM    2  C19 STI A 201      16.935  55.504  11.303  1.00 28.09    -0.035 A 
HETATM    3  C18 STI A 201      17.486  54.186  11.169  1.00 26.77     0.011 A 
HETATM    4  C17 STI A 201      17.417  53.246  12.260  1.00 25.91     0.030 A 
HETATM    5  C16 STI A 201      16.803  53.593  13.499  1.00 30.34     0.037 A 
HETATM    6  C15 STI A 201      16.246  54.929  13.641  1.00 29.33     0.060 A 
HETATM    7  C20 STI A 201      17.032  56.468  10.097  1.00 26.25     0.050 C 
ENDROOT
BRANCH   5   8
HETATM    8  N21 STI A 201      16.765  52.597  14.540  1.00 31.22    -0.323 N 
HETATM    9  C22 STI A 201      15.789  52.411  15.506  1.00 33.27     0.256 C 
HETATM   10  O29 STI A 201      14.900  53.213  15.753  1.00 38.89    -0.267 OA
HETATM   11  H21 STI A 201      17.553  51.950  14.569  1.00  0.00     0.169 HD
BRANCH   9  12
HETATM   12  C23 STI A 201      15.812  51.161  16.324  1.00 31.14     0.032 A 
HETATM   13  C25 STI A 201      14.635  50.726  17.081  1.00 34.22     0.017 A 
HETATM   14  C26 STI A 201      14.689  49.525  17.876  1.00 31.64     0.010 A 
HETATM   15  C27 STI A 201      15.926  48.749  17.917  1.00 38.05    -0.030 A 
HETATM   16  C28 STI A 201      17.077  49.200  17.152  1.00 29.43     0.010 A 
HETATM   17  C29 STI A 201      17.028  50.377  16.373  1.00 34.20     0.017 A 
BRANCH  15  18
HETATM   18  C46 STI A 201      16.080  47.466  18.755  1.00 35.44     0.311 C 
BRANCH  18  19
HETATM   19  N48 STI A 201      17.009  47.520  19.924  1.00 46.28     0.095 N 
HETATM   20  C53 STI A 201      18.443  47.573  19.460  1.00 45.06     0.300 C 
HETATM   21  C52 STI A 201      19.428  47.609  20.662  1.00 46.67     0.264 C 
HETATM   22  N51 STI A 201      19.121  48.786  21.577  1.00 48.74    -0.072 N 
HETATM   23  H51 STI A 201      19.244  49.719  20.979  1.00  0.00     0.279 HD
HETATM   24  C50 STI A 201      17.674  48.738  22.070  1.00 45.31     0.264 C 
HETATM   25  C54 STI A 201      20.030  48.872  22.730  1.00 49.83     0.269 C 
HETATM   26  C49 STI A 201      16.709  48.710  20.841  1.00 44.33     0.300 C 
ENDBRANCH  18  19
ENDBRANCH  15  18
ENDBRANCH   9  12
ENDBRANCH   5   8
BRANCH   1  27
HETATM   27  N13 STI A 201      15.755  57.135  12.770  1.00 32.90    -0.188 N 
HETATM   28  H13 STI A 201      16.328  57.879  13.168  1.00  0.00     0.184 HD
BRANCH  27  29
HETATM   29  C9  STI A 201      14.437  57.395  12.425  1.00 33.83     0.727 A 
HETATM   30  N10 STI A 201      13.553  56.385  12.096  1.00 32.08    -0.075 NA
HETATM   31  C11 STI A 201      12.245  56.665  11.764  1.00 35.42     0.139 A 
HETATM   32  C12 STI A 201      11.785  58.001  11.757  1.00 30.85     0.053 A 
HETATM   33  C7  STI A 201      12.729  59.024  12.105  1.00 33.05     0.089 A 
HETATM   34  N8  STI A 201      14.023  58.679  12.424  1.00 33.44    -0.062 NA
BRANCH  33  35
HETATM   35  C5  STI A 201      12.394  60.483  12.146  1.00 33.74     0.011 A 
HETATM   36  C4  STI A 201      11.047  60.907  11.794  1.00 31.40     0.130 A 
HETATM   37  N3  STI A 201      10.715  62.258  11.826  1.00 33.76    -0.272 NA
HETATM   38  C2  STI A 201      11.635  63.252  12.191  1.00 35.46     0.116 A 
HETATM   39  C1  STI A 201      12.984  62.902  12.548  1.00 35.17     0.020 A 
HETATM   40  C6  STI A 201      13.359  61.507  12.525  1.00 32.96     0.017 A 
ENDBRANCH  33  35
ENDBRANCH  27  29
ENDBRANCH   1  27
TORSDOF 7
ENDMDL
MODEL 3
REMARK VINA RESULT:   -12.801      1.404      2.070
REMARK ITER + INTRA:          -16.001
REMARK INTER:                 -14.889
REMARK INTRA:                  -1.112
REMARK CONF_INDEPENDENT:        2.088
REMARK UNBOUND:                 1.112
REMARK  7 active torsions:
REMARK  status: ('A' for Active; 'I' for Inactive)
REMARK    1  A    between atoms: C5_3  and  C7_7 
REMARK    2  A    between atoms: C9_11  and  N13_13 
REMARK    3  A    between atoms: N13_13  and  C14_15 
REMARK    4  A    between atoms: C16_19  and  N21_21 
REMARK       I    between atoms: N21_21  and  C22_23 
REMARK    5  A    between atoms: C22_23  and  C23_24 
REMARK    6  A    between atoms: C27_27  and  C46_30 
REMARK    7  A    between atoms: C46_30  and  N48_31 
ROOT
HETATM    1  C14 STI A 201      17.456  55.860  13.156  1.00 32.92     0.057 A 
HETATM    2  C19 STI A 201      17.393  55.476  11.741  1.00 28.09    -0.035 A 
HETATM    3  C18 STI A 201      17.148  54.098  11.423  1.00 26.77     0.011 A 
HETATM    4  C17 STI A 201      16.968  53.123  12.470  1.00 25.91     0.030 A 
HETATM    5  C16 STI A 201      17.025  53.493  13.845  1.00 30.34     0.037 A 
HETATM    6  C15 STI A 201      17.276  54.888  14.173  1.00 29.33     0.060 A 
HETATM    7  C20 STI A 201      17.572  56.479  10.578  1.00 26.25     0.050 C 
ENDROOT
BRANCH   5   8
HETATM    8  N21 STI A 201      16.826  52.464  14.834  1.00 31.22    -0.323 N 
HETATM    9  C22 STI A 201      15.704  52.238  15.615  1.00 33.27     0.256 C 
HETATM   10  O29 STI A 201      14.775  53.023  15.732  1.00 38.89    -0.267 OA
HETATM   11  H21 STI A 201      17.607  51.823  14.976  1.00  0.00     0.169 HD
BRANCH   9  12
HETATM   12  C23 STI A 201      15.606  50.962  16.387  1.00 31.14     0.032 A 
HETATM   13  C25 STI A 201      14.310  50.430  16.814  1.00 34.22     0.017 A 
HETATM   14  C26 STI A 201      14.245  49.206  17.573  1.00 31.64     0.010 A 
HETATM   15  C27 STI A 201      15.482  48.505  17.908  1.00 38.05    -0.030 A 
HETATM   16  C28 STI A 201      16.754  49.052  17.467  1.00 29.43     0.010 A 
HETATM   17  C29 STI A 201      16.822  50.252  16.724  1.00 34.20     0.017 A 
BRANCH  15  18
HETATM   18  C46 STI A 201      15.509  47.204  18.732  1.00 35.44     0.311 C 
BRANCH  18  19
HETATM   19  N48 STI A 201      16.437  47.154  19.901  1.00 46.28     0.095 N 
HETATM   20  C53 STI A 201      17.871  47.091  19.438  1.00 45.06     0.300 C 
HETATM   21  C52 STI A 201      18.853  47.018  20.640  1.00 46.67     0.264 C 
HETATM   22  N51 STI A 201      18.649  48.199  21.579  1.00 48.74    -0.072 N 
HETATM   23  H51 STI A 201      18.853  49.129  21.000  1.00  0.00     0.279 HD
HETATM   24  C50 STI A 201      17.202  48.266  22.071  1.00 45.31     0.264 C 
HETATM   25  C54 STI A 201      19.560  48.182  22.733  1.00 49.83     0.269 C 
HETATM   26  C49 STI A 201      16.240  48.346  20.842  1.00 44.33     0.300 C 
ENDBRANCH  18  19
ENDBRANCH  15  18
ENDBRANCH   9  12
ENDBRANCH   5   8
BRANCH   1  27
HETATM   27  N13 STI A 201      17.694  57.185  13.528  1.00 32.90    -0.188 N 
HETATM   28  H13 STI A 201      18.540  57.419  14.048  1.00  0.00     0.184 HD
BRANCH  27  29
HETATM   29  C9  STI A 201      16.793  58.186  13.198  1.00 33.83     0.727 A 
HETATM   30  N10 STI A 201      17.147  59.523  13.209  1.00 32.08    -0.075 NA
HETATM   31  C11 STI A 201      16.237  60.501  12.870  1.00 35.42     0.139 A 
HETATM   32  C12 STI A 201      14.920  60.148  12.501  1.00 30.85     0.053 A 
HETATM   33  C7  STI A 201      14.588  58.753  12.498  1.00 33.05     0.089 A 
HETATM   34  N8  STI A 201      15.541  57.823  12.851  1.00 33.44    -0.062 NA
BRANCH  33  35
HETATM   35  C5  STI A 201      13.238  58.221  12.128  1.00 33.74     0.011 A 
HETATM   36  C4  STI A 201      12.191  59.159  11.750  1.00 31.40     0.130 A 
HETATM   37  N3  STI A 201      10.930  58.686  11.401  1.00 33.76    -0.272 NA
HETATM   38  C2  STI A 201      10.611  57.319  11.397  1.00 35.46     0.116 A 
HETATM   39  C1  STI A 201      11.599  56.339  11.764  1.00 35.17     0.020 A 
HETATM   40  C6  STI A 201      12.919  56.799  12.130  1.00 32.96     0.017 A 
ENDBRANCH  33  35
ENDBRANCH  27  29
ENDBRANCH   1  27
TORSDOF 7
ENDMDL
