MODEL 1
REMARK VINA RESULT:   -14.270      0.000      0.000
REMARK ITER + INTRA:          -16.911
REMARK INTER:                 -16.358
REMARK INTRA:                  -0.554
REMARK CONF_INDEPENDENT:        2.088
REMARK UNBOUND:                 0.554
REMARK  7 active torsions:
REMARK  status: ('A' for Active; 'I' for Inactive)
REMARK    1  A    between atoms: C5_3  and  C7_7 
REMARK    2  A    between atoms: C9_11  and  N13_13 
REMARK    3  A    between atoms: N13_13  and  C14_15 
REMARK    4  A    between atoms: C16_19  and  N21_21 
REMARK       I    between atoms: N21_21  and  C22_23 
REMARK    5  A    between atoms: C22_23  and  C23_24 
REMARK    6  A    between atoms: C27_27  and  C46_30 
REMARK    7  A    between atoms: C46_30  and  N48_31 
ROOT
HETATM    1  C14 STI A 201      16.163  54.809  11.826  1.00 32.92     0.057 A 
HETATM    2  C19 STI A 201      17.275  54.603  10.889  1.00 28.09    -0.035 A 
HETATM    3  C18 STI A 201      18.248  53.596  11.203  1.00 26.77     0.011 A 
HETATM    4  C17 STI A 201      18.131  52.810  12.406  1.00 25.91     0.030 A 
HETATM    5  C16 STI A 201      17.051  53.005  13.316  1.00 30.34     0.037 A 
HETATM    6  C15 STI A 201      16.063  54.026  13.004  1.00 29.33     0.060 A 
HETATM    7  C20 STI A 201      17.447  55.411   9.582  1.00 26.25     0.050 C 
ENDROOT
BRANCH   5   8
HETATM    8  N21 STI A 201      16.996  52.175  14.493  1.00 31.22    -0.323 N 
HETATM    9  C22 STI A 201      15.948  52.032  15.387  1.00 33.27     0.256 C 
HETATM   10  O29 STI A 201      14.970  52.764  15.428  1.00 38.89    -0.267 OA
HETATM   11  H21 STI A 201      17.832  51.625  14.692  1.00  0.00     0.169 HD
BRANCH   9  12
HETATM   12  C23 STI A 201      15.999  50.925  16.390  1.00 31.14     0.032 A 
HETATM   13  C25 STI A 201      17.149  50.020  16.465  1.00 34.22     0.017 A 
HETATM   14  C26 STI A 201      17.166  48.950  17.430  1.00 31.64     0.010 A 
HETATM   15  C27 STI A 201      16.028  48.780  18.330  1.00 38.05    -0.030 A 
HETATM   16  C28 STI A 201      14.902  49.695  18.238  1.00 29.43     0.010 A 
HETATM   17  C29 STI A 201      14.882  50.744  17.292  1.00 34.20     0.017 A 
BRANCH  15  18
HETATM   18  C46 STI A 201      15.951  47.653  19.377  1.00 35.44     0.311 C 
BRANCH  18  19
HETATM   19  N48 STI A 201      17.146  47.447  20.249  1.00 46.28     0.095 N 
HETATM   20  C53 STI A 201      18.411  47.465  19.428  1.00 45.06     0.300 C 
HETATM   21  C52 STI A 201      19.666  47.232  20.315  1.00 46.67     0.264 C 
HETATM   22  N51 STI A 201      19.741  48.265  21.431  1.00 48.74    -0.072 N 
HETATM   23  H51 STI A 201      19.814  49.271  20.956  1.00  0.00     0.279 HD
HETATM   24  C50 STI A 201      18.471  48.246  22.283  1.00 45.31     0.264 C 
HETATM   25  C54 STI A 201      20.916  48.094  22.298  1.00 49.83     0.269 C 
HETATM   26  C49 STI A 201      17.228  48.490  21.367  1.00 44.33     0.300 C 
ENDBRANCH  18  19
ENDBRANCH  15  18
ENDBRANCH   9  12
ENDBRANCH   5   8
BRANCH   1  27
HETATM   27  N13 STI A 201      15.187  55.776  11.576  1.00 32.90    -0.188 N 
HETATM   28  H13 STI A 201      14.362  55.529  11.028  1.00  0.00     0.184 HD
BRANCH  27  29
HETATM   29  C9  STI A 201      15.325  57.066  12.063  1.00 33.83     0.727 A 
HETATM   30  N10 STI A 201      16.526  57.536  12.562  1.00 32.08    -0.075 NA
HETATM   31  C11 STI A 201      16.644  58.825  13.034  1.00 35.42     0.139 A 
HETATM   32  C12 STI A 201      15.529  59.693  13.013  1.00 30.85     0.053 A 
HETATM   33  C7  STI A 201      14.299  59.173  12.488  1.00 33.05     0.089 A 
HETATM   34  N8  STI A 201      14.246  57.875  12.034  1.00 33.44    -0.062 NA
BRANCH  33  35
HETATM   35  C5  STI A 201      13.034  59.969  12.396  1.00 33.74     0.011 A 
HETATM   36  C4  STI A 201      12.320  60.014  11.129  1.00 31.40     0.130 A 
HETATM   37  N3  STI A 201      11.142  60.747  11.023  1.00 33.76    -0.272 NA
HETATM   38  C2  STI A 201      10.598  61.460  12.101  1.00 35.46     0.116 A 
HETATM   39  C1  STI A 201      11.255  61.461  13.382  1.00 35.17     0.020 A 
HETATM   40  C6  STI A 201      12.480  60.708  13.523  1.00 32.96     0.017 A 
ENDBRANCH  33  35
ENDBRANCH  27  29
ENDBRANCH   1  27
TORSDOF 7
ENDMDL
MODEL 2
REMARK VINA RESULT:   -13.369      1.446      1.994
REMARK ITER + INTRA:          -16.354
REMARK INTER:                 -15.457
REMARK INTRA:                  -0.897
REMARK CONF_INDEPENDENT:        2.088
REMARK UNBOUND:                 0.897
REMARK  7 active torsions:
REMARK  status: ('A' for Active; 'I' for Inactive)
REMARK    1  A    between atoms: C5_3  and  C7_7 
REMARK    2  A    between atoms: C9_11  and  N13_13 
REMARK    3  A    between atoms: N13_13  and  C14_15 
REMARK    4  A    between atoms: C16_19  and  N21_21 
REMARK       I    between atoms: N21_21  and  C22_23 
REMARK    5  A    between atoms: C22_23  and  C23_24 
REMARK    6  A    between atoms: C27_27  and  C46_30 
REMARK    7  A    between atoms: C46_30  and  N48_31 
ROOT
HETATM    1  C14 STI A 201      15.434  54.087  13.006  1.00 32.92     0.057 A 
HETATM    2  C19 STI A 201      16.736  53.736  12.425  1.00 28.09    -0.035 A 
HETATM    3  C18 STI A 201      17.504  52.702  13.058  1.00 26.77     0.011 A 
HETATM    4  C17 STI A 201      17.004  52.028  14.231  1.00 25.91     0.030 A 
HETATM    5  C16 STI A 201      15.739  52.364  14.795  1.00 30.34     0.037 A 
HETATM    6  C15 STI A 201      14.957  53.413  14.159  1.00 29.33     0.060 A 
HETATM    7  C20 STI A 201      17.318  54.420  11.167  1.00 26.25     0.050 C 
ENDROOT
BRANCH   5   8
HETATM    8  N21 STI A 201      15.302  51.640  15.963  1.00 31.22    -0.323 N 
HETATM    9  C22 STI A 201      14.664  50.411  16.014  1.00 33.27     0.256 C 
HETATM   10  O29 STI A 201      14.178  49.845  15.046  1.00 38.89    -0.267 OA
HETATM   11  H21 STI A 201      15.487  52.087  16.861  1.00  0.00     0.169 HD
BRANCH   9  12
HETATM   12  C23 STI A 201      14.535  49.719  17.332  1.00 31.14     0.032 A 
HETATM   13  C25 STI A 201      13.623  50.216  18.365  1.00 34.22     0.017 A 
HETATM   14  C26 STI A 201      13.530  49.539  19.634  1.00 31.64     0.010 A 
HETATM   15  C27 STI A 201      14.352  48.355  19.877  1.00 38.05    -0.030 A 
HETATM   16  C28 STI A 201      15.244  47.881  18.832  1.00 29.43     0.010 A 
HETATM   17  C29 STI A 201      15.339  48.542  17.587  1.00 34.20     0.017 A 
BRANCH  15  18
HETATM   18  C46 STI A 201      14.333  47.583  21.209  1.00 35.44     0.311 C 
BRANCH  18  19
HETATM   19  N48 STI A 201      15.650  47.171  21.779  1.00 46.28     0.095 N 
HETATM   20  C53 STI A 201      16.114  45.874  21.162  1.00 45.06     0.300 C 
HETATM   21  C52 STI A 201      17.475  45.417  21.757  1.00 46.67     0.264 C 
HETATM   22  N51 STI A 201      18.532  46.498  21.582  1.00 48.74    -0.072 N 
HETATM   23  H51 STI A 201      18.656  46.675  20.489  1.00  0.00     0.279 HD
HETATM   24  C50 STI A 201      18.084  47.815  22.218  1.00 45.31     0.264 C 
HETATM   25  C54 STI A 201      19.844  46.113  22.123  1.00 49.83     0.269 C 
HETATM   26  C49 STI A 201      16.719  48.253  21.596  1.00 44.33     0.300 C 
ENDBRANCH  18  19
ENDBRANCH  15  18
ENDBRANCH   9  12
ENDBRANCH   5   8
BRANCH   1  27
HETATM   27  N13 STI A 201      14.642  55.087  12.436  1.00 32.90    -0.188 N 
HETATM   28  H13 STI A 201      13.830  54.828  11.876  1.00  0.00     0.184 HD
BRANCH  27  29
HETATM   29  C9  STI A 201      14.948  56.426  12.623  1.00 33.83     0.727 A 
HETATM   30  N10 STI A 201      16.216  56.845  12.982  1.00 32.08    -0.075 NA
HETATM   31  C11 STI A 201      16.500  58.182  13.155  1.00 35.42     0.139 A 
HETATM   32  C12 STI A 201      15.491  59.152  12.965  1.00 30.85     0.053 A 
HETATM   33  C7  STI A 201      14.187  58.683  12.591  1.00 33.05     0.089 A 
HETATM   34  N8  STI A 201      13.967  57.333  12.437  1.00 33.44    -0.062 NA
BRANCH  33  35
HETATM   35  C5  STI A 201      13.018  59.586  12.351  1.00 33.74     0.011 A 
HETATM   36  C4  STI A 201      12.255  59.438  11.120  1.00 31.40     0.130 A 
HETATM   37  N3  STI A 201      11.163  60.267  10.878  1.00 33.76    -0.272 NA
HETATM   38  C2  STI A 201      10.754  61.259  11.781  1.00 35.46     0.116 A 
HETATM   39  C1  STI A 201      11.467  61.461  13.015  1.00 35.17     0.020 A 
HETATM   40  C6  STI A 201      12.603  60.615  13.296  1.00 32.96     0.017 A 
ENDBRANCH  33  35
ENDBRANCH  27  29
ENDBRANCH   1  27
TORSDOF 7
ENDMDL
MODEL 3
REMARK VINA RESULT:   -12.643      1.433      2.053
REMARK ITER + INTRA:          -15.604
REMARK INTER:                 -14.731
REMARK INTRA:                  -0.873
REMARK CONF_INDEPENDENT:        2.088
REMARK UNBOUND:                 0.873
REMARK  7 active torsions:
REMARK  status: ('A' for Active; 'I' for Inactive)
REMARK    1  A    between atoms: C5_3  and  C7_7 
REMARK    2  A    between atoms: C9_11  and  N13_13 
REMARK    3  A    between atoms: N13_13  and  C14_15 
REMARK    4  A    between atoms: C16_19  and  N21_21 
REMARK       I    between atoms: N21_21  and  C22_23 
REMARK    5  A    between atoms: C22_23  and  C23_24 
REMARK    6  A    between atoms: C27_27  and  C46_30 
REMARK    7  A    between atoms: C46_30  and  N48_31 
ROOT
HETATM    1  C14 STI A 201      17.325  55.526  13.408  1.00 32.92     0.057 A 
HETATM    2  C19 STI A 201      16.982  55.068  12.056  1.00 28.09    -0.035 A 
HETATM    3  C18 STI A 201      16.555  53.708  11.889  1.00 26.77     0.011 A 
HETATM    4  C17 STI A 201      16.465  52.821  13.022  1.00 25.91     0.030 A 
HETATM    5  C16 STI A 201      16.793  53.264  14.337  1.00 30.34     0.037 A 
HETATM    6  C15 STI A 201      17.229  54.640  14.512  1.00 29.33     0.060 A 
HETATM    7  C20 STI A 201      17.055  55.976  10.807  1.00 26.25     0.050 C 
ENDROOT
BRANCH   5   8
HETATM    8  N21 STI A 201      16.669  52.321  15.421  1.00 31.22    -0.323 N 
HETATM    9  C22 STI A 201      15.790  51.256  15.527  1.00 33.27     0.256 C 
HETATM   10  O29 STI A 201      14.827  51.079  14.796  1.00 38.89    -0.267 OA
HETATM   11  H21 STI A 201      17.307  52.456  16.206  1.00  0.00     0.169 HD
BRANCH   9  12
HETATM   12  C23 STI A 201      16.003  50.249  16.611  1.00 31.14     0.032 A 
HETATM   13  C25 STI A 201      15.067  50.129  17.732  1.00 34.22     0.017 A 
HETATM   14  C26 STI A 201      15.305  49.161  18.773  1.00 31.64     0.010 A 
HETATM   15  C27 STI A 201      16.485  48.303  18.696  1.00 38.05    -0.030 A 
HETATM   16  C28 STI A 201      17.395  48.440  17.571  1.00 29.43     0.010 A 
HETATM   17  C29 STI A 201      17.165  49.388  16.549  1.00 34.20     0.017 A 
BRANCH  15  18
HETATM   18  C46 STI A 201      16.830  47.257  19.773  1.00 35.44     0.311 C 
BRANCH  18  19
HETATM   19  N48 STI A 201      18.024  47.525  20.629  1.00 46.28     0.095 N 
HETATM   20  C53 STI A 201      19.193  47.971  19.785  1.00 45.06     0.300 C 
HETATM   21  C52 STI A 201      20.453  48.235  20.655  1.00 46.67     0.264 C 
HETATM   22  N51 STI A 201      20.157  49.262  21.739  1.00 48.74    -0.072 N 
HETATM   23  H51 STI A 201      19.860  50.210  21.234  1.00  0.00     0.279 HD
HETATM   24  C50 STI A 201      18.986  48.815  22.615  1.00 45.31     0.264 C 
HETATM   25  C54 STI A 201      21.321  49.554  22.588  1.00 49.83     0.269 C 
HETATM   26  C49 STI A 201      17.732  48.564  21.715  1.00 44.33     0.300 C 
ENDBRANCH  18  19
ENDBRANCH  15  18
ENDBRANCH   9  12
ENDBRANCH   5   8
BRANCH   1  27
HETATM   27  N13 STI A 201      17.749  56.837  13.634  1.00 32.90    -0.188 N 
HETATM   28  H13 STI A 201      18.659  57.006  14.062  1.00  0.00     0.184 HD
BRANCH  27  29
HETATM   29  C9  STI A 201      16.947  57.912  13.283  1.00 33.83     0.727 A 
HETATM   30  N10 STI A 201      17.420  59.211  13.284  1.00 32.08    -0.075 NA
HETATM   31  C11 STI A 201      16.607  60.264  12.923  1.00 35.42     0.139 A 
HETATM   32  C12 STI A 201      15.267  60.027  12.542  1.00 30.85     0.053 A 
HETATM   33  C7  STI A 201      14.810  58.668  12.551  1.00 33.05     0.089 A 
HETATM   34  N8  STI A 201      15.671  57.660  12.924  1.00 33.44    -0.062 NA
BRANCH  33  35
HETATM   35  C5  STI A 201      13.421  58.257  12.170  1.00 33.74     0.011 A 
HETATM   36  C4  STI A 201      12.460  59.283  11.795  1.00 31.40     0.130 A 
HETATM   37  N3  STI A 201      11.165  58.923  11.437  1.00 33.76    -0.272 NA
HETATM   38  C2  STI A 201      10.731  57.589  11.421  1.00 35.46     0.116 A 
HETATM   39  C1  STI A 201      11.629  56.525  11.784  1.00 35.17     0.020 A 
HETATM   40  C6  STI A 201      12.981  56.868  12.159  1.00 32.96     0.017 A 
ENDBRANCH  33  35
ENDBRANCH  27  29
ENDBRANCH   1  27
TORSDOF 7
ENDMDL
MODEL 4
REMARK VINA RESULT:   -11.941      3.840     11.351
REMARK ITER + INTRA:          -14.999
REMARK INTER:                 -14.029
REMARK INTRA:                  -0.970
REMARK CONF_INDEPENDENT:        2.088
REMARK UNBOUND:                 0.970
REMARK  7 active torsions:
REMARK  status: ('A' for Active; 'I' for Inactive)
REMARK    1  A    between atoms: C5_3  and  C7_7 
REMARK    2  A    between atoms: C9_11  and  N13_13 
REMARK    3  A    between atoms: N13_13  and  C14_15 
REMARK    4  A    between atoms: C16_19  and  N21_21 
REMARK       I    between atoms: N21_21  and  C22_23 
REMARK    5  A    between atoms: C22_23  and  C23_24 
REMARK    6  A    between atoms: C27_27  and  C46_30 
REMARK    7  A    between atoms: C46_30  and  N48_31 
ROOT
HETATM    1  C14 STI A 201      16.119  48.880  16.725  1.00 32.92     0.057 A 
HETATM    2  C19 STI A 201      17.151  48.670  17.749  1.00 28.09    -0.035 A 
HETATM    3  C18 STI A 201      18.090  49.728  17.991  1.00 26.77     0.011 A 
HETATM    4  C17 STI A 201      18.015  50.962  17.249  1.00 25.91     0.030 A 
HETATM    5  C16 STI A 201      17.013  51.170  16.257  1.00 30.34     0.037 A 
HETATM    6  C15 STI A 201      16.060  50.100  16.005  1.00 29.33     0.060 A 
HETATM    7  C20 STI A 201      17.274  47.372  18.579  1.00 26.25     0.050 C 
ENDROOT
BRANCH   5   8
HETATM    8  N21 STI A 201      16.997  52.433  15.562  1.00 31.22    -0.323 N 
HETATM    9  C22 STI A 201      16.299  52.764  14.413  1.00 33.27     0.256 C 
HETATM   10  O29 STI A 201      15.745  51.955  13.683  1.00 38.89    -0.267 OA
HETATM   11  H21 STI A 201      17.570  53.173  15.967  1.00  0.00     0.169 HD
BRANCH   9  12
HETATM   12  C23 STI A 201      16.215  54.201  14.007  1.00 31.14     0.032 A 
HETATM   13  C25 STI A 201      17.399  55.063  14.018  1.00 34.22     0.017 A 
HETATM   14  C26 STI A 201      17.287  56.450  13.638  1.00 31.64     0.010 A 
HETATM   15  C27 STI A 201      15.985  56.981  13.243  1.00 38.05    -0.030 A 
HETATM   16  C28 STI A 201      14.828  56.102  13.237  1.00 29.43     0.010 A 
HETATM   17  C29 STI A 201      14.933  54.743  13.609  1.00 34.20     0.017 A 
BRANCH  15  18
HETATM   18  C46 STI A 201      15.769  58.453  12.843  1.00 35.44     0.311 C 
BRANCH  18  19
HETATM   19  N48 STI A 201      14.379  58.991  12.944  1.00 46.28     0.095 N 
HETATM   20  C53 STI A 201      14.404  60.472  13.237  1.00 45.06     0.300 C 
HETATM   21  C52 STI A 201      12.967  61.048  13.366  1.00 46.67     0.264 C 
HETATM   22  N51 STI A 201      12.156  60.769  12.109  1.00 48.74    -0.072 N 
HETATM   23  H51 STI A 201      12.672  61.268  11.256  1.00  0.00     0.279 HD
HETATM   24  C50 STI A 201      12.107  59.270  11.808  1.00 45.31     0.264 C 
HETATM   25  C54 STI A 201      10.787  61.301  12.175  1.00 49.83     0.269 C 
HETATM   26  C49 STI A 201      13.564  58.719  11.677  1.00 44.33     0.300 C 
ENDBRANCH  18  19
ENDBRANCH  15  18
ENDBRANCH   9  12
ENDBRANCH   5   8
BRANCH   1  27
HETATM   27  N13 STI A 201      15.179  47.886  16.443  1.00 32.90    -0.188 N 
HETATM   28  H13 STI A 201      15.476  46.912  16.390  1.00  0.00     0.184 HD
BRANCH  27  29
HETATM   29  C9  STI A 201      13.848  48.210  16.233  1.00 33.83     0.727 A 
HETATM   30  N10 STI A 201      13.154  49.050  17.085  1.00 32.08    -0.075 NA
HETATM   31  C11 STI A 201      11.833  49.365  16.853  1.00 35.42     0.139 A 
HETATM   32  C12 STI A 201      11.163  48.830  15.730  1.00 30.85     0.053 A 
HETATM   33  C7  STI A 201      11.912  47.964  14.866  1.00 33.05     0.089 A 
HETATM   34  N8  STI A 201      13.230  47.685  15.154  1.00 33.44    -0.062 NA
BRANCH  33  35
HETATM   35  C5  STI A 201      11.344  47.324  13.638  1.00 33.74     0.011 A 
HETATM   36  C4  STI A 201      12.248  46.924  12.569  1.00 31.40     0.130 A 
HETATM   37  N3  STI A 201      11.741  46.326  11.420  1.00 33.76    -0.272 NA
HETATM   38  C2  STI A 201      10.371  46.086  11.236  1.00 35.46     0.116 A 
HETATM   39  C1  STI A 201       9.422  46.460  12.251  1.00 35.17     0.020 A 
HETATM   40  C6  STI A 201       9.919  47.081  13.457  1.00 32.96     0.017 A 
ENDBRANCH  33  35
ENDBRANCH  27  29
ENDBRANCH   1  27
TORSDOF 7
ENDMDL
