MODEL 1
REMARK VINA RESULT:   -10.281      0.000      0.000
REMARK ITER + INTRA:          -15.380
REMARK INTER:                 -14.488
REMARK INTRA:                  -0.891
REMARK UNBOUND:                -0.891
REMARK  7 active torsions:
REMARK  status: ('A' for Active; 'I' for Inactive)
REMARK    1  A    between atoms: C5_3  and  C7_7 
REMARK    2  A    between atoms: C9_11  and  N13_13 
REMARK    3  A    between atoms: N13_13  and  C14_15 
REMARK    4  A    between atoms: C16_19  and  N21_21 
REMARK       I    between atoms: N21_21  and  C22_23 
REMARK    5  A    between atoms: C22_23  and  C23_24 
REMARK    6  A    between atoms: C27_27  and  C46_30 
REMARK    7  A    between atoms: C46_30  and  N48_31 
ROOT
HETATM    1  C14 STI A 201      15.969  54.324  12.551  1.00 32.92     0.057 A 
HETATM    2  C19 STI A 201      17.130  54.010  11.709  1.00 28.09    -0.035 A 
HETATM    3  C18 STI A 201      18.030  52.983  12.151  1.00 26.77     0.011 A 
HETATM    4  C17 STI A 201      17.793  52.281  13.388  1.00 25.91     0.030 A 
HETATM    5  C16 STI A 201      16.665  52.582  14.206  1.00 30.34     0.037 A 
HETATM    6  C15 STI A 201      15.751  53.623  13.764  1.00 29.33     0.060 A 
HETATM    7  C20 STI A 201      17.429  54.725  10.371  1.00 26.25     0.050 C 
ENDROOT
BRANCH   5   8
HETATM    8  N21 STI A 201      16.491  51.830  15.424  1.00 31.22    -0.323 N 
HETATM    9  C22 STI A 201      15.682  50.726  15.636  1.00 33.27     0.256 C 
HETATM   10  O29 STI A 201      14.817  50.345  14.861  1.00 38.89    -0.267 OA
HETATM   11  H21 STI A 201      17.030  52.152  16.229  1.00  0.00     0.169 HD
BRANCH   9  12
HETATM   12  C23 STI A 201      15.847  49.941  16.897  1.00 31.14     0.032 A 
HETATM   13  C25 STI A 201      14.709  49.678  17.782  1.00 34.22     0.017 A 
HETATM   14  C26 STI A 201      14.899  48.933  19.001  1.00 31.64     0.010 A 
HETATM   15  C27 STI A 201      16.233  48.443  19.341  1.00 38.05    -0.030 A 
HETATM   16  C28 STI A 201      17.342  48.713  18.441  1.00 29.43     0.010 A 
HETATM   17  C29 STI A 201      17.160  49.445  17.246  1.00 34.20     0.017 A 
BRANCH  15  18
HETATM   18  C46 STI A 201      16.532  47.657  20.631  1.00 35.44     0.311 C 
BRANCH  18  19
HETATM   19  N48 STI A 201      17.904  47.087  20.783  1.00 46.28     0.095 N 
HETATM   20  C53 STI A 201      18.740  47.953  21.693  1.00 45.06     0.300 C 
HETATM   21  C52 STI A 201      20.180  47.388  21.847  1.00 46.67     0.264 C 
HETATM   22  N51 STI A 201      20.148  45.955  22.359  1.00 48.74    -0.072 N 
HETATM   23  H51 STI A 201      19.652  45.963  23.357  1.00  0.00     0.279 HD
HETATM   24  C50 STI A 201      19.317  45.061  21.436  1.00 45.31     0.264 C 
HETATM   25  C54 STI A 201      21.487  45.374  22.530  1.00 49.83     0.269 C 
HETATM   26  C49 STI A 201      17.875  45.648  21.305  1.00 44.33     0.300 C 
ENDBRANCH  18  19
ENDBRANCH  15  18
ENDBRANCH   9  12
ENDBRANCH   5   8
BRANCH   1  27
HETATM   27  N13 STI A 201      15.060  55.315  12.175  1.00 32.90    -0.188 N 
HETATM   28  H13 STI A 201      14.231  55.062  11.637  1.00  0.00     0.184 HD
BRANCH  27  29
HETATM   29  C9  STI A 201      15.271  56.640  12.524  1.00 33.83     0.727 A 
HETATM   30  N10 STI A 201      16.499  57.095  12.969  1.00 32.08    -0.075 NA
HETATM   31  C11 STI A 201      16.688  58.418  13.303  1.00 35.42     0.139 A 
HETATM   32  C12 STI A 201      15.621  59.337  13.194  1.00 30.85     0.053 A 
HETATM   33  C7  STI A 201      14.362  58.833  12.728  1.00 33.05     0.089 A 
HETATM   34  N8  STI A 201      14.235  57.498  12.412  1.00 33.44    -0.062 NA
BRANCH  33  35
HETATM   35  C5  STI A 201      13.140  59.681  12.556  1.00 33.74     0.011 A 
HETATM   36  C4  STI A 201      12.336  59.524  11.353  1.00 31.40     0.130 A 
HETATM   37  N3  STI A 201      11.197  60.302  11.174  1.00 33.76    -0.272 NA
HETATM   38  C2  STI A 201      10.776  61.252  12.117  1.00 35.46     0.116 A 
HETATM   39  C1  STI A 201      11.527  61.461  13.327  1.00 35.17     0.020 A 
HETATM   40  C6  STI A 201      12.714  60.666  13.542  1.00 32.96     0.017 A 
ENDBRANCH  33  35
ENDBRANCH  27  29
ENDBRANCH   1  27
TORSDOF 7
ENDMDL
MODEL 2
REMARK VINA RESULT:    -9.616      2.281     12.506
REMARK ITER + INTRA:          -14.442
REMARK INTER:                 -13.666
REMARK INTRA:                  -0.776
REMARK UNBOUND:                -0.891
REMARK  7 active torsions:
REMARK  status: ('A' for Active; 'I' for Inactive)
REMARK    1  A    between atoms: C5_3  and  C7_7 
REMARK    2  A    between atoms: C9_11  and  N13_13 
REMARK    3  A    between atoms: N13_13  and  C14_15 
REMARK    4  A    between atoms: C16_19  and  N21_21 
REMARK       I    between atoms: N21_21  and  C22_23 
REMARK    5  A    between atoms: C22_23  and  C23_24 
REMARK    6  A    between atoms: C27_27  and  C46_30 
REMARK    7  A    between atoms: C46_30  and  N48_31 
ROOT
HETATM    1  C14 STI A 201      15.418  47.917  18.498  1.00 32.92     0.057 A 
HETATM    2  C19 STI A 201      14.116  47.767  19.158  1.00 28.09    -0.035 A 
HETATM    3  C18 STI A 201      13.124  48.781  18.940  1.00 26.77     0.011 A 
HETATM    4  C17 STI A 201      13.404  49.913  18.093  1.00 25.91     0.030 A 
HETATM    5  C16 STI A 201      14.666  50.060  17.447  1.00 30.34     0.037 A 
HETATM    6  C15 STI A 201      15.676  49.037  17.666  1.00 29.33     0.060 A 
HETATM    7  C20 STI A 201      13.759  46.571  20.072  1.00 26.25     0.050 C 
ENDROOT
BRANCH   5   8
HETATM    8  N21 STI A 201      14.868  51.215  16.607  1.00 31.22    -0.323 N 
HETATM    9  C22 STI A 201      15.973  51.518  15.828  1.00 33.27     0.256 C 
HETATM   10  O29 STI A 201      17.049  50.945  15.902  1.00 38.89    -0.267 OA
HETATM   11  H21 STI A 201      14.104  51.890  16.585  1.00  0.00     0.169 HD
BRANCH   9  12
HETATM   12  C23 STI A 201      15.871  52.630  14.834  1.00 31.14     0.032 A 
HETATM   13  C25 STI A 201      16.835  52.758  13.737  1.00 34.22     0.017 A 
HETATM   14  C26 STI A 201      16.724  53.849  12.802  1.00 31.64     0.010 A 
HETATM   15  C27 STI A 201      15.644  54.820  12.958  1.00 38.05    -0.030 A 
HETATM   16  C28 STI A 201      14.699  54.666  14.052  1.00 29.43     0.010 A 
HETATM   17  C29 STI A 201      14.805  53.598  14.972  1.00 34.20     0.017 A 
BRANCH  15  18
HETATM   18  C46 STI A 201      15.462  56.027  12.019  1.00 35.44     0.311 C 
BRANCH  18  19
HETATM   19  N48 STI A 201      14.722  57.207  12.558  1.00 46.28     0.095 N 
HETATM   20  C53 STI A 201      15.648  58.389  12.714  1.00 45.06     0.300 C 
HETATM   21  C52 STI A 201      14.901  59.622  13.293  1.00 46.67     0.264 C 
HETATM   22  N51 STI A 201      13.709  59.992  12.422  1.00 48.74    -0.072 N 
HETATM   23  H51 STI A 201      14.097  60.246  11.409  1.00  0.00     0.279 HD
HETATM   24  C50 STI A 201      12.751  58.809  12.269  1.00 45.31     0.264 C 
HETATM   25  C54 STI A 201      12.970  61.160  12.923  1.00 49.83     0.269 C 
HETATM   26  C49 STI A 201      13.527  57.587  11.679  1.00 44.33     0.300 C 
ENDBRANCH  18  19
ENDBRANCH  15  18
ENDBRANCH   9  12
ENDBRANCH   5   8
BRANCH   1  27
HETATM   27  N13 STI A 201      16.424  46.965  18.673  1.00 32.90    -0.188 N 
HETATM   28  H13 STI A 201      16.401  46.101  18.132  1.00  0.00     0.184 HD
BRANCH  27  29
HETATM   29  C9  STI A 201      17.455  47.180  19.575  1.00 33.83     0.727 A 
HETATM   30  N10 STI A 201      17.344  46.838  20.910  1.00 32.08    -0.075 NA
HETATM   31  C11 STI A 201      18.385  47.054  21.788  1.00 35.42     0.139 A 
HETATM   32  C12 STI A 201      19.590  47.632  21.331  1.00 30.85     0.053 A 
HETATM   33  C7  STI A 201      19.671  47.974  19.940  1.00 33.05     0.089 A 
HETATM   34  N8  STI A 201      18.595  47.735  19.114  1.00 33.44    -0.062 NA
BRANCH  33  35
HETATM   35  C5  STI A 201      20.880  48.589  19.306  1.00 33.74     0.011 A 
HETATM   36  C4  STI A 201      20.929  50.033  19.135  1.00 31.40     0.130 A 
HETATM   37  N3  STI A 201      22.044  50.625  18.549  1.00 33.76    -0.272 NA
HETATM   38  C2  STI A 201      23.146  49.880  18.104  1.00 35.46     0.116 A 
HETATM   39  C1  STI A 201      23.162  48.447  18.239  1.00 35.17     0.020 A 
HETATM   40  C6  STI A 201      22.019  47.804  18.845  1.00 32.96     0.017 A 
ENDBRANCH  33  35
ENDBRANCH  27  29
ENDBRANCH   1  27
TORSDOF 7
ENDMDL
MODEL 3
REMARK VINA RESULT:    -8.552      1.818     12.776
REMARK ITER + INTRA:          -12.943
REMARK INTER:                 -13.209
REMARK INTRA:                   0.266
REMARK UNBOUND:                -0.891
REMARK  7 active torsions:
REMARK  status: ('A' for Active; 'I' for Inactive)
REMARK    1  A    between atoms: C5_3  and  C7_7 
REMARK    2  A    between atoms: C9_11  and  N13_13 
REMARK    3  A    between atoms: N13_13  and  C14_15 
REMARK    4  A    between atoms: C16_19  and  N21_21 
REMARK       I    between atoms: N21_21  and  C22_23 
REMARK    5  A    between atoms: C22_23  and  C23_24 
REMARK    6  A    between atoms: C27_27  and  C46_30 
REMARK    7  A    between atoms: C46_30  and  N48_31 
ROOT
HETATM    1  C14 STI A 201      14.745  48.369  18.062  1.00 32.92     0.057 A 
HETATM    2  C19 STI A 201      13.352  48.316  18.522  1.00 28.09    -0.035 A 
HETATM    3  C18 STI A 201      12.459  49.359  18.104  1.00 26.77     0.011 A 
HETATM    4  C17 STI A 201      12.923  50.427  17.254  1.00 25.91     0.030 A 
HETATM    5  C16 STI A 201      14.274  50.480  16.803  1.00 30.34     0.037 A 
HETATM    6  C15 STI A 201      15.184  49.427  17.225  1.00 29.33     0.060 A 
HETATM    7  C20 STI A 201      12.798  47.192  19.428  1.00 26.25     0.050 C 
ENDROOT
BRANCH   5   8
HETATM    8  N21 STI A 201      14.662  51.574  15.947  1.00 31.22    -0.323 N 
HETATM    9  C22 STI A 201      15.922  51.859  15.446  1.00 33.27     0.256 C 
HETATM   10  O29 STI A 201      16.954  51.332  15.832  1.00 38.89    -0.267 OA
HETATM   11  H21 STI A 201      13.917  52.218  15.679  1.00  0.00     0.169 HD
BRANCH   9  12
HETATM   12  C23 STI A 201      16.055  52.887  14.369  1.00 31.14     0.032 A 
HETATM   13  C25 STI A 201      17.167  52.848  13.416  1.00 34.22     0.017 A 
HETATM   14  C26 STI A 201      17.281  53.862  12.397  1.00 31.64     0.010 A 
HETATM   15  C27 STI A 201      16.279  54.922  12.326  1.00 38.05    -0.030 A 
HETATM   16  C28 STI A 201      15.183  54.933  13.281  1.00 29.43     0.010 A 
HETATM   17  C29 STI A 201      15.068  53.942  14.281  1.00 34.20     0.017 A 
BRANCH  15  18
HETATM   18  C46 STI A 201      16.334  56.057  11.285  1.00 35.44     0.311 C 
BRANCH  18  19
HETATM   19  N48 STI A 201      15.669  57.345  11.643  1.00 46.28     0.095 N 
HETATM   20  C53 STI A 201      14.181  57.151  11.796  1.00 45.06     0.300 C 
HETATM   21  C52 STI A 201      13.467  58.486  12.148  1.00 46.67     0.264 C 
HETATM   22  N51 STI A 201      14.056  59.097  13.412  1.00 48.74    -0.072 N 
HETATM   23  H51 STI A 201      13.898  58.371  14.243  1.00  0.00     0.279 HD
HETATM   24  C50 STI A 201      15.563  59.316  13.267  1.00 45.31     0.264 C 
HETATM   25  C54 STI A 201      13.411  60.361  13.796  1.00 49.83     0.269 C 
HETATM   26  C49 STI A 201      16.253  57.957  12.920  1.00 44.33     0.300 C 
ENDBRANCH  18  19
ENDBRANCH  15  18
ENDBRANCH   9  12
ENDBRANCH   5   8
BRANCH   1  27
HETATM   27  N13 STI A 201      15.661  47.384  18.437  1.00 32.90    -0.188 N 
HETATM   28  H13 STI A 201      15.703  46.510  17.914  1.00  0.00     0.184 HD
BRANCH  27  29
HETATM   29  C9  STI A 201      16.513  47.582  19.512  1.00 33.83     0.727 A 
HETATM   30  N10 STI A 201      16.071  48.116  20.709  1.00 32.08    -0.075 NA
HETATM   31  C11 STI A 201      16.934  48.297  21.768  1.00 35.42     0.139 A 
HETATM   32  C12 STI A 201      18.294  47.932  21.646  1.00 30.85     0.053 A 
HETATM   33  C7  STI A 201      18.717  47.379  20.392  1.00 33.05     0.089 A 
HETATM   34  N8  STI A 201      17.807  47.227  19.370  1.00 33.44    -0.062 NA
BRANCH  33  35
HETATM   35  C5  STI A 201      20.121  46.942  20.109  1.00 33.74     0.011 A 
HETATM   36  C4  STI A 201      20.976  46.554  21.221  1.00 31.40     0.130 A 
HETATM   37  N3  STI A 201      22.284  46.144  20.981  1.00 33.76    -0.272 NA
HETATM   38  C2  STI A 201      22.830  46.086  19.690  1.00 35.46     0.116 A 
HETATM   39  C1  STI A 201      22.041  46.459  18.546  1.00 35.17     0.020 A 
HETATM   40  C6  STI A 201      20.679  46.887  18.764  1.00 32.96     0.017 A 
ENDBRANCH  33  35
ENDBRANCH  27  29
ENDBRANCH   1  27
TORSDOF 7
ENDMDL
MODEL 4
REMARK VINA RESULT:    -8.218      1.501      2.332
REMARK ITER + INTRA:          -12.472
REMARK INTER:                 -12.740
REMARK INTRA:                   0.268
REMARK UNBOUND:                -0.891
REMARK  7 active torsions:
REMARK  status: ('A' for Active; 'I' for Inactive)
REMARK    1  A    between atoms: C5_3  and  C7_7 
REMARK    2  A    between atoms: C9_11  and  N13_13 
REMARK    3  A    between atoms: N13_13  and  C14_15 
REMARK    4  A    between atoms: C16_19  and  N21_21 
REMARK       I    between atoms: N21_21  and  C22_23 
REMARK    5  A    between atoms: C22_23  and  C23_24 
REMARK    6  A    between atoms: C27_27  and  C46_30 
REMARK    7  A    between atoms: C46_30  and  N48_31 
ROOT
HETATM    1  C14 STI A 201      17.439  53.866  13.702  1.00 32.92     0.057 A 
HETATM    2  C19 STI A 201      16.650  53.691  12.477  1.00 28.09    -0.035 A 
HETATM    3  C18 STI A 201      15.576  52.739  12.492  1.00 26.77     0.011 A 
HETATM    4  C17 STI A 201      15.284  51.979  13.682  1.00 25.91     0.030 A 
HETATM    5  C16 STI A 201      16.047  52.149  14.874  1.00 30.34     0.037 A 
HETATM    6  C15 STI A 201      17.138  53.111  14.864  1.00 29.33     0.060 A 
HETATM    7  C20 STI A 201      16.914  54.483  11.175  1.00 26.25     0.050 C 
ENDROOT
BRANCH   5   8
HETATM    8  N21 STI A 201      15.688  51.360  16.027  1.00 31.22    -0.323 N 
HETATM    9  C22 STI A 201      14.897  50.223  16.068  1.00 33.27     0.256 C 
HETATM   10  O29 STI A 201      14.199  49.833  15.144  1.00 38.89    -0.267 OA
HETATM   11  H21 STI A 201      16.064  51.677  16.920  1.00  0.00     0.169 HD
BRANCH   9  12
HETATM   12  C23 STI A 201      14.867  49.410  17.322  1.00 31.14     0.032 A 
HETATM   13  C25 STI A 201      14.085  49.837  18.485  1.00 34.22     0.017 A 
HETATM   14  C26 STI A 201      14.086  49.043  19.688  1.00 31.64     0.010 A 
HETATM   15  C27 STI A 201      14.872  47.812  19.733  1.00 38.05    -0.030 A 
HETATM   16  C28 STI A 201      15.634  47.409  18.563  1.00 29.43     0.010 A 
HETATM   17  C29 STI A 201      15.636  48.186  17.382  1.00 34.20     0.017 A 
BRANCH  15  18
HETATM   18  C46 STI A 201      14.948  46.913  20.982  1.00 35.44     0.311 C 
BRANCH  18  19
HETATM   19  N48 STI A 201      16.308  46.588  21.507  1.00 46.28     0.095 N 
HETATM   20  C53 STI A 201      16.860  45.360  20.825  1.00 45.06     0.300 C 
HETATM   21  C52 STI A 201      18.267  44.992  21.373  1.00 46.67     0.264 C 
HETATM   22  N51 STI A 201      19.230  46.161  21.224  1.00 48.74    -0.072 N 
HETATM   23  H51 STI A 201      19.313  46.394  20.137  1.00  0.00     0.279 HD
HETATM   24  C50 STI A 201      18.691  47.409  21.925  1.00 45.31     0.264 C 
HETATM   25  C54 STI A 201      20.581  45.863  21.721  1.00 49.83     0.269 C 
HETATM   26  C49 STI A 201      17.281  47.760  21.350  1.00 44.33     0.300 C 
ENDBRANCH  18  19
ENDBRANCH  15  18
ENDBRANCH   9  12
ENDBRANCH   5   8
BRANCH   1  27
HETATM   27  N13 STI A 201      18.498  54.775  13.748  1.00 32.90    -0.188 N 
HETATM   28  H13 STI A 201      19.452  54.446  13.603  1.00  0.00     0.184 HD
BRANCH  27  29
HETATM   29  C9  STI A 201      18.267  56.121  13.990  1.00 33.83     0.727 A 
HETATM   30  N10 STI A 201      19.168  56.907  14.684  1.00 32.08    -0.075 NA
HETATM   31  C11 STI A 201      18.921  58.244  14.906  1.00 35.42     0.139 A 
HETATM   32  C12 STI A 201      17.734  58.837  14.421  1.00 30.85     0.053 A 
HETATM   33  C7  STI A 201      16.822  57.993  13.704  1.00 33.05     0.089 A 
HETATM   34  N8  STI A 201      17.125  56.662  13.518  1.00 33.44    -0.062 NA
BRANCH  33  35
HETATM   35  C5  STI A 201      15.526  58.473  13.126  1.00 33.74     0.011 A 
HETATM   36  C4  STI A 201      14.713  57.547  12.353  1.00 31.40     0.130 A 
HETATM   37  N3  STI A 201      13.505  57.972  11.809  1.00 33.76    -0.272 NA
HETATM   38  C2  STI A 201      13.023  59.280  11.972  1.00 35.46     0.116 A 
HETATM   39  C1  STI A 201      13.779  60.247  12.723  1.00 35.17     0.020 A 
HETATM   40  C6  STI A 201      15.037  59.834  13.302  1.00 32.96     0.017 A 
ENDBRANCH  33  35
ENDBRANCH  27  29
ENDBRANCH   1  27
TORSDOF 7
ENDMDL
