REMARK  7 active torsions:
REMARK  status: ('A' for Active; 'I' for Inactive)
REMARK    1  A    between atoms: C5_3  and  C7_7 
REMARK    2  A    between atoms: C9_11  and  N13_13 
REMARK    3  A    between atoms: N13_13  and  C14_15 
REMARK    4  A    between atoms: C16_19  and  N21_21 
REMARK       I    between atoms: N21_21  and  C22_23 
REMARK    5  A    between atoms: C22_23  and  C23_24 
REMARK    6  A    between atoms: C27_27  and  C46_30 
REMARK    7  A    between atoms: C46_30  and  N48_31 
ROOT
HETATM    1  C14 STI A 201      15.822  54.641  12.322  1.00 32.92     0.057 A 
HETATM    2  C19 STI A 201      16.950  54.502  11.393  1.00 28.09    -0.035 A 
HETATM    3  C18 STI A 201      17.915  53.471  11.648  1.00 26.77     0.011 A 
HETATM    4  C17 STI A 201      17.774  52.597  12.786  1.00 25.91     0.030 A 
HETATM    5  C16 STI A 201      16.678  52.727  13.688  1.00 30.34     0.037 A 
HETATM    6  C15 STI A 201      15.698  53.772  13.436  1.00 29.33     0.060 A 
HETATM    7  C20 STI A 201      17.148  55.406  10.154  1.00 26.25     0.050 C 
ENDROOT
BRANCH   5   8
HETATM    8  N21 STI A 201      16.600  51.810  14.798  1.00 31.22    -0.323 N 
HETATM    9  C22 STI A 201      15.629  51.747  15.784  1.00 33.27     0.256 C 
HETATM   10  O29 STI A 201      14.789  52.612  15.983  1.00 38.89    -0.267 OA
HETATM   11  H21 STI A 201      17.352  51.124  14.865  1.00  0.00     0.169 HD
BRANCH   9  12
HETATM   12  C23 STI A 201      15.595  50.558  16.689  1.00 31.14     0.032 A 
HETATM   13  C25 STI A 201      14.423  50.268  17.519  1.00 34.22     0.017 A 
HETATM   14  C26 STI A 201      14.423  49.124  18.396  1.00 31.64     0.010 A 
HETATM   15  C27 STI A 201      15.600  48.260  18.446  1.00 38.05    -0.030 A 
HETATM   16  C28 STI A 201      16.747  48.568  17.608  1.00 29.43     0.010 A 
HETATM   17  C29 STI A 201      16.751  49.689  16.748  1.00 34.20     0.017 A 
BRANCH  15  18
HETATM   18  C46 STI A 201      15.696  47.030  19.368  1.00 35.44     0.311 C 
BRANCH  18  19
HETATM   19  N48 STI A 201      16.917  46.907  20.219  1.00 46.28     0.095 N 
HETATM   20  C53 STI A 201      17.097  48.140  21.070  1.00 45.06     0.300 C 
HETATM   21  C52 STI A 201      18.375  48.041  21.949  1.00 46.67     0.264 C 
HETATM   22  N51 STI A 201      18.337  46.794  22.821  1.00 48.74    -0.072 N 
HETATM   23  H51 STI A 201      17.445  46.873  23.485  1.00  0.00     0.279 HD
HETATM   24  C50 STI A 201      18.172  45.533  21.971  1.00 45.31     0.264 C 
HETATM   25  C54 STI A 201      19.522  46.655  23.680  1.00 49.83     0.269 C 
HETATM   26  C49 STI A 201      16.877  45.658  21.104  1.00 44.33     0.300 C 
ENDBRANCH  18  19
ENDBRANCH  15  18
ENDBRANCH   9  12
ENDBRANCH   5   8
BRANCH   1  27
HETATM   27  N13 STI A 201      14.852  55.627  12.128  1.00 32.90    -0.188 N 
HETATM   28  H13 STI A 201      13.976  55.388  11.664  1.00  0.00     0.184 HD
BRANCH  27  29
HETATM   29  C9  STI A 201      15.067  56.927  12.559  1.00 33.83     0.727 A 
HETATM   30  N10 STI A 201      16.232  57.303  13.202  1.00 32.08    -0.075 NA
HETATM   31  C11 STI A 201      16.428  58.603  13.615  1.00 35.42     0.139 A 
HETATM   32  C12 STI A 201      15.433  59.579  13.383  1.00 30.85     0.053 A 
HETATM   33  C7  STI A 201      14.238  59.155  12.712  1.00 33.05     0.089 A 
HETATM   34  N8  STI A 201      14.101  57.840  12.327  1.00 33.44    -0.062 NA
BRANCH  33  35
HETATM   35  C5  STI A 201      13.097  60.070  12.392  1.00 33.74     0.011 A 
HETATM   36  C4  STI A 201      12.031  59.591  11.525  1.00 31.40     0.130 A 
HETATM   37  N3  STI A 201      10.961  60.425  11.216  1.00 33.76    -0.272 NA
HETATM   38  C2  STI A 201      10.858  61.734  11.710  1.00 35.46     0.116 A 
HETATM   39  C1  STI A 201      11.879  62.272  12.570  1.00 35.17     0.020 A 
HETATM   40  C6  STI A 201      13.002  61.429  12.910  1.00 32.96     0.017 A 
ENDBRANCH  33  35
ENDBRANCH  27  29
ENDBRANCH   1  27
TORSDOF 7
