MODEL 1
REMARK VINA RESULT:   -15.091      0.000      0.000
REMARK ITER + INTRA:          -18.918
REMARK INTER:                 -17.179
REMARK INTRA:                  -1.738
REMARK CONF_INDEPENDENT:        2.088
REMARK UNBOUND:                 1.738
REMARK  7 active torsions:
REMARK  status: ('A' for Active; 'I' for Inactive)
REMARK    1  A    between atoms: C5_3  and  C7_7 
REMARK    2  A    between atoms: C9_11  and  N13_13 
REMARK    3  A    between atoms: N13_13  and  C14_15 
REMARK    4  A    between atoms: C16_19  and  N21_21 
REMARK       I    between atoms: N21_21  and  C22_23 
REMARK    5  A    between atoms: C22_23  and  C23_24 
REMARK    6  A    between atoms: C27_27  and  C46_30 
REMARK    7  A    between atoms: C46_30  and  N48_31 
ROOT
HETATM    1  C14 STI A 201      15.744  54.231  12.085  1.00 32.92     0.057 A 
HETATM    2  C19 STI A 201      16.896  54.212  11.175  1.00 28.09    -0.035 A 
HETATM    3  C18 STI A 201      17.925  53.239  11.404  1.00 26.77     0.011 A 
HETATM    4  C17 STI A 201      17.823  52.306  12.498  1.00 25.91     0.030 A 
HETATM    5  C16 STI A 201      16.705  52.319  13.382  1.00 30.34     0.037 A 
HETATM    6  C15 STI A 201      15.660  53.305  13.156  1.00 29.33     0.060 A 
HETATM    7  C20 STI A 201      17.053  55.184   9.982  1.00 26.25     0.050 C 
ENDROOT
BRANCH   5   8
HETATM    8  N21 STI A 201      16.670  51.349  14.448  1.00 31.22    -0.323 N 
HETATM    9  C22 STI A 201      15.752  51.250  15.480  1.00 33.27     0.256 C 
HETATM   10  O29 STI A 201      14.939  52.117  15.767  1.00 38.89    -0.267 OA
HETATM   11  H21 STI A 201      17.412  50.649  14.440  1.00  0.00     0.169 HD
BRANCH   9  12
HETATM   12  C23 STI A 201      15.746  50.018  16.326  1.00 31.14     0.032 A 
HETATM   13  C25 STI A 201      14.520  49.552  16.981  1.00 34.22     0.017 A 
HETATM   14  C26 STI A 201      14.546  48.370  17.805  1.00 31.64     0.010 A 
HETATM   15  C27 STI A 201      15.801  47.644  17.977  1.00 38.05    -0.030 A 
HETATM   16  C28 STI A 201      17.001  48.125  17.312  1.00 29.43     0.010 A 
HETATM   17  C29 STI A 201      16.980  49.284  16.504  1.00 34.20     0.017 A 
BRANCH  15  18
HETATM   18  C46 STI A 201      15.926  46.385  18.856  1.00 35.44     0.311 C 
BRANCH  18  19
HETATM   19  N48 STI A 201      16.804  46.475  20.060  1.00 46.28     0.095 N 
HETATM   20  C53 STI A 201      18.238  46.710  19.654  1.00 45.06     0.300 C 
HETATM   21  C52 STI A 201      19.173  46.786  20.893  1.00 46.67     0.264 C 
HETATM   22  N51 STI A 201      18.708  47.870  21.856  1.00 48.74    -0.072 N 
HETATM   23  H51 STI A 201      18.745  48.843  21.314  1.00  0.00     0.279 HD
HETATM   24  C50 STI A 201      17.260  47.635  22.291  1.00 45.31     0.264 C 
HETATM   25  C54 STI A 201      19.564  47.989  23.046  1.00 49.83     0.269 C 
HETATM   26  C49 STI A 201      16.344  47.570  21.026  1.00 44.33     0.300 C 
ENDBRANCH  18  19
ENDBRANCH  15  18
ENDBRANCH   9  12
ENDBRANCH   5   8
BRANCH   1  27
HETATM   27  N13 STI A 201      14.712  55.157  11.915  1.00 32.90    -0.188 N 
HETATM   28  H13 STI A 201      13.853  54.874  11.444  1.00  0.00     0.184 HD
BRANCH  27  29
HETATM   29  C9  STI A 201      14.843  56.457  12.378  1.00 33.83     0.727 A 
HETATM   30  N10 STI A 201      16.046  56.950  12.850  1.00 32.08    -0.075 NA
HETATM   31  C11 STI A 201      16.155  58.248  13.299  1.00 35.42     0.139 A 
HETATM   32  C12 STI A 201      15.029  59.102  13.281  1.00 30.85     0.053 A 
HETATM   33  C7  STI A 201      13.798  58.559  12.784  1.00 33.05     0.089 A 
HETATM   34  N8  STI A 201      13.753  57.252  12.353  1.00 33.44    -0.062 NA
BRANCH  33  35
HETATM   35  C5  STI A 201      12.522  59.337  12.700  1.00 33.74     0.011 A 
HETATM   36  C4  STI A 201      11.602  59.067  11.605  1.00 31.40     0.130 A 
HETATM   37  N3  STI A 201      10.410  59.779  11.509  1.00 33.76    -0.272 NA
HETATM   38  C2  STI A 201      10.045  60.766  12.436  1.00 35.46     0.116 A 
HETATM   39  C1  STI A 201      10.910  61.086  13.541  1.00 35.17     0.020 A 
HETATM   40  C6  STI A 201      12.154  60.363  13.668  1.00 32.96     0.017 A 
ENDBRANCH  33  35
ENDBRANCH  27  29
ENDBRANCH   1  27
TORSDOF 7
BEGIN_RES THR A 315
REMARK  2 active torsions:
REMARK  status: ('A' for Active; 'I' for Inactive)
REMARK    1  A    between atoms: CA   and  CB  
REMARK    2  A    between atoms: CB   and  OG1 
ROOT
ATOM      1  CA  THR A 315      13.079  52.503   8.093  1.00 45.40     0.205 C 
ENDROOT
BRANCH   1   2
ATOM      2  CB  THR A 315      13.429  52.900   9.553  1.00 45.76     0.146 C 
ATOM      3  CG2 THR A 315      13.964  51.752  10.334  1.00 42.73     0.042 C 
BRANCH   2   4
ATOM      4  OG1 THR A 315      14.366  53.984   9.537  1.00 47.20    -0.393 OA
ATOM      5  HG1 THR A 315      14.228  54.464   8.862  1.00 47.20     0.210 HD
ENDBRANCH   2   4
ENDBRANCH   1   2
END_RES THR A 315
ENDMDL
MODEL 2
REMARK VINA RESULT:   -13.092      1.491      1.974
REMARK ITER + INTRA:          -16.461
REMARK INTER:                 -15.180
REMARK INTRA:                  -1.281
REMARK CONF_INDEPENDENT:        2.088
REMARK UNBOUND:                 1.281
REMARK  7 active torsions:
REMARK  status: ('A' for Active; 'I' for Inactive)
REMARK    1  A    between atoms: C5_3  and  C7_7 
REMARK    2  A    between atoms: C9_11  and  N13_13 
REMARK    3  A    between atoms: N13_13  and  C14_15 
REMARK    4  A    between atoms: C16_19  and  N21_21 
REMARK       I    between atoms: N21_21  and  C22_23 
REMARK    5  A    between atoms: C22_23  and  C23_24 
REMARK    6  A    between atoms: C27_27  and  C46_30 
REMARK    7  A    between atoms: C46_30  and  N48_31 
ROOT
HETATM    1  C14 STI A 201      16.885  53.968  12.158  1.00 32.92     0.057 A 
HETATM    2  C19 STI A 201      16.390  53.516  10.852  1.00 28.09    -0.035 A 
HETATM    3  C18 STI A 201      15.693  52.263  10.788  1.00 26.77     0.011 A 
HETATM    4  C17 STI A 201      15.486  51.475  11.978  1.00 25.91     0.030 A 
HETATM    5  C16 STI A 201      15.963  51.913  13.248  1.00 30.34     0.037 A 
HETATM    6  C15 STI A 201      16.672  53.181  13.319  1.00 29.33     0.060 A 
HETATM    7  C20 STI A 201      16.577  54.322   9.546  1.00 26.25     0.050 C 
ENDROOT
BRANCH   5   8
HETATM    8  N21 STI A 201      15.710  51.075  14.394  1.00 31.22    -0.323 N 
HETATM    9  C22 STI A 201      14.817  51.296  15.430  1.00 33.27     0.256 C 
HETATM   10  O29 STI A 201      14.250  52.358  15.639  1.00 38.89    -0.267 OA
HETATM   11  H21 STI A 201      16.255  50.215  14.448  1.00  0.00     0.169 HD
BRANCH   9  12
HETATM   12  C23 STI A 201      14.522  50.179  16.379  1.00 31.14     0.032 A 
HETATM   13  C25 STI A 201      13.145  49.837  16.745  1.00 34.22     0.017 A 
HETATM   14  C26 STI A 201      12.889  48.767  17.676  1.00 31.64     0.010 A 
HETATM   15  C27 STI A 201      14.014  48.029  18.246  1.00 38.05    -0.030 A 
HETATM   16  C28 STI A 201      15.369  48.386  17.861  1.00 29.43     0.010 A 
HETATM   17  C29 STI A 201      15.624  49.435  16.950  1.00 34.20     0.017 A 
BRANCH  15  18
HETATM   18  C46 STI A 201      13.835  46.886  19.263  1.00 35.44     0.311 C 
BRANCH  18  19
HETATM   19  N48 STI A 201      14.844  46.782  20.359  1.00 46.28     0.095 N 
HETATM   20  C53 STI A 201      16.180  46.346  19.810  1.00 45.06     0.300 C 
HETATM   21  C52 STI A 201      17.240  46.211  20.938  1.00 46.67     0.264 C 
HETATM   22  N51 STI A 201      17.382  47.517  21.707  1.00 48.74    -0.072 N 
HETATM   23  H51 STI A 201      17.717  48.298  20.986  1.00  0.00     0.279 HD
HETATM   24  C50 STI A 201      16.038  47.964  22.284  1.00 45.31     0.264 C 
HETATM   25  C54 STI A 201      18.380  47.446  22.784  1.00 49.83     0.269 C 
HETATM   26  C49 STI A 201      14.995  48.098  21.127  1.00 44.33     0.300 C 
ENDBRANCH  18  19
ENDBRANCH  15  18
ENDBRANCH   9  12
ENDBRANCH   5   8
BRANCH   1  27
HETATM   27  N13 STI A 201      17.573  55.177  12.283  1.00 32.90    -0.188 N 
HETATM   28  H13 STI A 201      18.525  55.255  11.927  1.00  0.00     0.184 HD
BRANCH  27  29
HETATM   29  C9  STI A 201      16.975  56.273  12.887  1.00 33.83     0.727 A 
HETATM   30  N10 STI A 201      17.605  56.995  13.884  1.00 32.08    -0.075 NA
HETATM   31  C11 STI A 201      16.995  58.086  14.465  1.00 35.42     0.139 A 
HETATM   32  C12 STI A 201      15.707  58.487  14.044  1.00 30.85     0.053 A 
HETATM   33  C7  STI A 201      15.084  57.716  13.006  1.00 33.05     0.089 A 
HETATM   34  N8  STI A 201      15.744  56.635  12.468  1.00 33.44    -0.062 NA
BRANCH  33  35
HETATM   35  C5  STI A 201      13.726  58.017  12.452  1.00 33.74     0.011 A 
HETATM   36  C4  STI A 201      13.233  59.385  12.497  1.00 31.40     0.130 A 
HETATM   37  N3  STI A 201      11.974  59.686  11.986  1.00 33.76    -0.272 NA
HETATM   38  C2  STI A 201      11.139  58.712  11.418  1.00 35.46     0.116 A 
HETATM   39  C1  STI A 201      11.563  57.339  11.344  1.00 35.17     0.020 A 
HETATM   40  C6  STI A 201      12.866  56.996  11.865  1.00 32.96     0.017 A 
ENDBRANCH  33  35
ENDBRANCH  27  29
ENDBRANCH   1  27
TORSDOF 7
BEGIN_RES THR A 315
REMARK  2 active torsions:
REMARK  status: ('A' for Active; 'I' for Inactive)
REMARK    1  A    between atoms: CA   and  CB  
REMARK    2  A    between atoms: CB   and  OG1 
ROOT
ATOM      1  CA  THR A 315      13.079  52.503   8.093  1.00 45.40     0.205 C 
ENDROOT
BRANCH   1   2
ATOM      2  CB  THR A 315      13.429  52.900   9.553  1.00 45.76     0.146 C 
ATOM      3  CG2 THR A 315      13.412  54.374   9.754  1.00 42.73     0.042 C 
BRANCH   2   4
ATOM      4  OG1 THR A 315      12.517  52.256  10.450  1.00 47.20    -0.393 OA
ATOM      5  HG1 THR A 315      11.997  51.761  10.014  1.00 47.20     0.210 HD
ENDBRANCH   2   4
ENDBRANCH   1   2
END_RES THR A 315
ENDMDL
MODEL 3
REMARK VINA RESULT:   -12.501      3.443      6.580
REMARK ITER + INTRA:          -15.371
REMARK INTER:                 -14.589
REMARK INTRA:                  -0.782
REMARK CONF_INDEPENDENT:        2.088
REMARK UNBOUND:                 0.782
REMARK  7 active torsions:
REMARK  status: ('A' for Active; 'I' for Inactive)
REMARK    1  A    between atoms: C5_3  and  C7_7 
REMARK    2  A    between atoms: C9_11  and  N13_13 
REMARK    3  A    between atoms: N13_13  and  C14_15 
REMARK    4  A    between atoms: C16_19  and  N21_21 
REMARK       I    between atoms: N21_21  and  C22_23 
REMARK    5  A    between atoms: C22_23  and  C23_24 
REMARK    6  A    between atoms: C27_27  and  C46_30 
REMARK    7  A    between atoms: C46_30  and  N48_31 
ROOT
HETATM    1  C14 STI A 201      15.763  54.102  13.200  1.00 32.92     0.057 A 
HETATM    2  C19 STI A 201      16.160  55.505  13.031  1.00 28.09    -0.035 A 
HETATM    3  C18 STI A 201      17.337  55.963  13.711  1.00 26.77     0.011 A 
HETATM    4  C17 STI A 201      18.107  55.065  14.536  1.00 25.91     0.030 A 
HETATM    5  C16 STI A 201      17.726  53.701  14.700  1.00 30.34     0.037 A 
HETATM    6  C15 STI A 201      16.532  53.232  14.015  1.00 29.33     0.060 A 
HETATM    7  C20 STI A 201      15.377  56.510  12.154  1.00 26.25     0.050 C 
ENDROOT
BRANCH   5   8
HETATM    8  N21 STI A 201      18.551  52.862  15.533  1.00 31.22    -0.323 N 
HETATM    9  C22 STI A 201      19.613  53.241  16.337  1.00 33.27     0.256 C 
HETATM   10  O29 STI A 201      20.155  54.336  16.296  1.00 38.89    -0.267 OA
HETATM   11  H21 STI A 201      18.323  51.868  15.530  1.00  0.00     0.169 HD
BRANCH   9  12
HETATM   12  C23 STI A 201      20.164  52.257  17.318  1.00 31.14     0.032 A 
HETATM   13  C25 STI A 201      19.359  51.130  17.797  1.00 34.22     0.017 A 
HETATM   14  C26 STI A 201      19.909  50.205  18.756  1.00 31.64     0.010 A 
HETATM   15  C27 STI A 201      21.273  50.403  19.242  1.00 38.05    -0.030 A 
HETATM   16  C28 STI A 201      22.050  51.526  18.746  1.00 29.43     0.010 A 
HETATM   17  C29 STI A 201      21.515  52.435  17.806  1.00 34.20     0.017 A 
BRANCH  15  18
HETATM   18  C46 STI A 201      21.933  49.477  20.281  1.00 35.44     0.311 C 
BRANCH  18  19
HETATM   19  N48 STI A 201      21.034  48.575  21.061  1.00 46.28     0.095 N 
HETATM   20  C53 STI A 201      20.162  49.375  21.998  1.00 45.06     0.300 C 
HETATM   21  C52 STI A 201      19.233  48.452  22.835  1.00 46.67     0.264 C 
HETATM   22  N51 STI A 201      18.378  47.578  21.928  1.00 48.74    -0.072 N 
HETATM   23  H51 STI A 201      17.750  48.254  21.302  1.00  0.00     0.279 HD
HETATM   24  C50 STI A 201      19.249  46.748  20.984  1.00 45.31     0.264 C 
HETATM   25  C54 STI A 201      17.474  46.689  22.671  1.00 49.83     0.269 C 
HETATM   26  C49 STI A 201      20.166  47.701  20.151  1.00 44.33     0.300 C 
ENDBRANCH  18  19
ENDBRANCH  15  18
ENDBRANCH   9  12
ENDBRANCH   5   8
BRANCH   1  27
HETATM   27  N13 STI A 201      14.626  53.598  12.566  1.00 32.90    -0.188 N 
HETATM   28  H13 STI A 201      13.763  54.142  12.569  1.00  0.00     0.184 HD
BRANCH  27  29
HETATM   29  C9  STI A 201      14.656  52.366  11.930  1.00 33.83     0.727 A 
HETATM   30  N10 STI A 201      15.262  52.190  10.700  1.00 32.08    -0.075 NA
HETATM   31  C11 STI A 201      15.288  50.954  10.090  1.00 35.42     0.139 A 
HETATM   32  C12 STI A 201      14.691  49.839  10.721  1.00 30.85     0.053 A 
HETATM   33  C7  STI A 201      14.074  50.057  11.997  1.00 33.05     0.089 A 
HETATM   34  N8  STI A 201      14.079  51.317  12.552  1.00 33.44    -0.062 NA
BRANCH  33  35
HETATM   35  C5  STI A 201      13.405  48.977  12.790  1.00 33.74     0.011 A 
HETATM   36  C4  STI A 201      13.440  49.044  14.243  1.00 31.40     0.130 A 
HETATM   37  N3  STI A 201      12.824  48.052  14.998  1.00 33.76    -0.272 NA
HETATM   38  C2  STI A 201      12.156  46.965  14.414  1.00 35.46     0.116 A 
HETATM   39  C1  STI A 201      12.085  46.835  12.982  1.00 35.17     0.020 A 
HETATM   40  C6  STI A 201      12.715  47.852  12.171  1.00 32.96     0.017 A 
ENDBRANCH  33  35
ENDBRANCH  27  29
ENDBRANCH   1  27
TORSDOF 7
BEGIN_RES THR A 315
REMARK  2 active torsions:
REMARK  status: ('A' for Active; 'I' for Inactive)
REMARK    1  A    between atoms: CA   and  CB  
REMARK    2  A    between atoms: CB   and  OG1 
ROOT
ATOM      1  CA  THR A 315      13.079  52.503   8.093  1.00 45.40     0.205 C 
ENDROOT
BRANCH   1   2
ATOM      2  CB  THR A 315      13.429  52.900   9.553  1.00 45.76     0.146 C 
ATOM      3  CG2 THR A 315      13.633  54.366   9.703  1.00 42.73     0.042 C 
BRANCH   2   4
ATOM      4  OG1 THR A 315      12.393  52.440  10.430  1.00 47.20    -0.393 OA
ATOM      5  HG1 THR A 315      12.708  51.869  10.959  1.00 47.20     0.210 HD
ENDBRANCH   2   4
ENDBRANCH   1   2
END_RES THR A 315
ENDMDL
MODEL 4
REMARK VINA RESULT:   -12.108      2.696     10.593
REMARK ITER + INTRA:          -16.287
REMARK INTER:                 -14.196
REMARK INTRA:                  -2.092
REMARK CONF_INDEPENDENT:        2.088
REMARK UNBOUND:                 2.092
REMARK  7 active torsions:
REMARK  status: ('A' for Active; 'I' for Inactive)
REMARK    1  A    between atoms: C5_3  and  C7_7 
REMARK    2  A    between atoms: C9_11  and  N13_13 
REMARK    3  A    between atoms: N13_13  and  C14_15 
REMARK    4  A    between atoms: C16_19  and  N21_21 
REMARK       I    between atoms: N21_21  and  C22_23 
REMARK    5  A    between atoms: C22_23  and  C23_24 
REMARK    6  A    between atoms: C27_27  and  C46_30 
REMARK    7  A    between atoms: C46_30  and  N48_31 
ROOT
HETATM    1  C14 STI A 201      16.082  48.530  18.277  1.00 32.92     0.057 A 
HETATM    2  C19 STI A 201      17.445  48.243  18.740  1.00 28.09    -0.035 A 
HETATM    3  C18 STI A 201      18.533  48.948  18.126  1.00 26.77     0.011 A 
HETATM    4  C17 STI A 201      18.288  49.914  17.083  1.00 25.91     0.030 A 
HETATM    5  C16 STI A 201      16.966  50.198  16.633  1.00 30.34     0.037 A 
HETATM    6  C15 STI A 201      15.859  49.484  17.251  1.00 29.33     0.060 A 
HETATM    7  C20 STI A 201      17.766  47.223  19.858  1.00 26.25     0.050 C 
ENDROOT
BRANCH   5   8
HETATM    8  N21 STI A 201      16.799  51.182  15.593  1.00 31.22    -0.323 N 
HETATM    9  C22 STI A 201      15.711  52.010  15.370  1.00 33.27     0.256 C 
HETATM   10  O29 STI A 201      14.621  51.877  15.906  1.00 38.89    -0.267 OA
HETATM   11  H21 STI A 201      17.579  51.282  14.943  1.00  0.00     0.169 HD
BRANCH   9  12
HETATM   12  C23 STI A 201      15.849  53.138  14.400  1.00 31.14     0.032 A 
HETATM   13  C25 STI A 201      17.021  54.017  14.417  1.00 34.22     0.017 A 
HETATM   14  C26 STI A 201      17.121  55.108  13.481  1.00 31.64     0.010 A 
HETATM   15  C27 STI A 201      16.044  55.326  12.518  1.00 38.05    -0.030 A 
HETATM   16  C28 STI A 201      14.895  54.436  12.519  1.00 29.43     0.010 A 
HETATM   17  C29 STI A 201      14.793  53.366  13.435  1.00 34.20     0.017 A 
BRANCH  15  18
HETATM   18  C46 STI A 201      16.057  56.479  11.496  1.00 35.44     0.311 C 
BRANCH  18  19
HETATM   19  N48 STI A 201      15.154  57.638  11.762  1.00 46.28     0.095 N 
HETATM   20  C53 STI A 201      13.713  57.192  11.797  1.00 45.06     0.300 C 
HETATM   21  C52 STI A 201      12.754  58.388  12.052  1.00 46.67     0.264 C 
HETATM   22  N51 STI A 201      13.119  59.108  13.343  1.00 48.74    -0.072 N 
HETATM   23  H51 STI A 201      13.017  58.377  14.178  1.00  0.00     0.279 HD
HETATM   24  C50 STI A 201      14.573  59.582  13.316  1.00 45.31     0.264 C 
HETATM   25  C54 STI A 201      12.237  60.247  13.637  1.00 49.83     0.269 C 
HETATM   26  C49 STI A 201      15.513  58.359  13.065  1.00 44.33     0.300 C 
ENDBRANCH  18  19
ENDBRANCH  15  18
ENDBRANCH   9  12
ENDBRANCH   5   8
BRANCH   1  27
HETATM   27  N13 STI A 201      14.983  47.874  18.835  1.00 32.90    -0.188 N 
HETATM   28  H13 STI A 201      15.128  47.187  19.575  1.00  0.00     0.184 HD
BRANCH  27  29
HETATM   29  C9  STI A 201      13.697  48.146  18.395  1.00 33.83     0.727 A 
HETATM   30  N10 STI A 201      12.763  48.770  19.201  1.00 32.08    -0.075 NA
HETATM   31  C11 STI A 201      11.492  49.038  18.740  1.00 35.42     0.139 A 
HETATM   32  C12 STI A 201      11.124  48.677  17.424  1.00 30.85     0.053 A 
HETATM   33  C7  STI A 201      12.118  48.033  16.615  1.00 33.05     0.089 A 
HETATM   34  N8  STI A 201      13.369  47.790  17.135  1.00 33.44    -0.062 NA
BRANCH  33  35
HETATM   35  C5  STI A 201      11.882  47.594  15.203  1.00 33.74     0.011 A 
HETATM   36  C4  STI A 201      12.868  47.928  14.187  1.00 31.40     0.130 A 
HETATM   37  N3  STI A 201      12.668  47.529  12.869  1.00 33.76    -0.272 NA
HETATM   38  C2  STI A 201      11.537  46.805  12.464  1.00 35.46     0.116 A 
HETATM   39  C1  STI A 201      10.520  46.446  13.417  1.00 35.17     0.020 A 
HETATM   40  C6  STI A 201      10.701  46.845  14.794  1.00 32.96     0.017 A 
ENDBRANCH  33  35
ENDBRANCH  27  29
ENDBRANCH   1  27
TORSDOF 7
BEGIN_RES THR A 315
REMARK  2 active torsions:
REMARK  status: ('A' for Active; 'I' for Inactive)
REMARK    1  A    between atoms: CA   and  CB  
REMARK    2  A    between atoms: CB   and  OG1 
ROOT
ATOM      1  CA  THR A 315      13.079  52.503   8.093  1.00 45.40     0.205 C 
ENDROOT
BRANCH   1   2
ATOM      2  CB  THR A 315      13.429  52.900   9.553  1.00 45.76     0.146 C 
ATOM      3  CG2 THR A 315      14.031  51.772  10.313  1.00 42.73     0.042 C 
BRANCH   2   4
ATOM      4  OG1 THR A 315      14.311  54.029   9.538  1.00 47.20    -0.393 OA
ATOM      5  HG1 THR A 315      14.359  54.336   8.758  1.00 47.20     0.210 HD
ENDBRANCH   2   4
ENDBRANCH   1   2
END_RES THR A 315
ENDMDL
