MODEL 1
REMARK VINA RESULT:   -10.954      0.000      0.000
REMARK ITER + INTRA:          -16.889
REMARK INTER:                 -15.437
REMARK INTRA:                  -1.452
REMARK UNBOUND:                -1.452
REMARK  7 active torsions:
REMARK  status: ('A' for Active; 'I' for Inactive)
REMARK    1  A    between atoms: C5_3  and  C7_7 
REMARK    2  A    between atoms: C9_11  and  N13_13 
REMARK    3  A    between atoms: N13_13  and  C14_15 
REMARK    4  A    between atoms: C16_19  and  N21_21 
REMARK       I    between atoms: N21_21  and  C22_23 
REMARK    5  A    between atoms: C22_23  and  C23_24 
REMARK    6  A    between atoms: C27_27  and  C46_30 
REMARK    7  A    between atoms: C46_30  and  N48_31 
ROOT
HETATM    1  C14 STI A 201      15.809  53.960  12.647  1.00 32.92     0.057 A 
HETATM    2  C19 STI A 201      16.910  53.812  11.688  1.00 28.09    -0.035 A 
HETATM    3  C18 STI A 201      17.916  52.824  11.958  1.00 26.77     0.011 A 
HETATM    4  C17 STI A 201      17.839  52.001  13.139  1.00 25.91     0.030 A 
HETATM    5  C16 STI A 201      16.769  52.140  14.070  1.00 30.34     0.037 A 
HETATM    6  C15 STI A 201      15.749  53.142  13.803  1.00 29.33     0.060 A 
HETATM    7  C20 STI A 201      17.040  54.662  10.402  1.00 26.25     0.050 C 
ENDROOT
BRANCH   5   8
HETATM    8  N21 STI A 201      16.756  51.275  15.223  1.00 31.22    -0.323 N 
HETATM    9  C22 STI A 201      15.699  50.527  15.715  1.00 33.27     0.256 C 
HETATM   10  O29 STI A 201      14.537  50.655  15.359  1.00 38.89    -0.267 OA
HETATM   11  H21 STI A 201      17.633  51.205  15.740  1.00  0.00     0.169 HD
BRANCH   9  12
HETATM   12  C23 STI A 201      15.969  49.497  16.764  1.00 31.14     0.032 A 
HETATM   13  C25 STI A 201      14.885  48.699  17.342  1.00 34.22     0.017 A 
HETATM   14  C26 STI A 201      15.170  47.724  18.365  1.00 31.64     0.010 A 
HETATM   15  C27 STI A 201      16.548  47.542  18.816  1.00 38.05    -0.030 A 
HETATM   16  C28 STI A 201      17.605  48.343  18.221  1.00 29.43     0.010 A 
HETATM   17  C29 STI A 201      17.328  49.300  17.219  1.00 34.20     0.017 A 
BRANCH  15  18
HETATM   18  C46 STI A 201      16.942  46.540  19.917  1.00 35.44     0.311 C 
BRANCH  18  19
HETATM   19  N48 STI A 201      18.336  46.620  20.448  1.00 46.28     0.095 N 
HETATM   20  C53 STI A 201      18.324  46.799  21.946  1.00 45.06     0.300 C 
HETATM   21  C52 STI A 201      19.766  46.905  22.516  1.00 46.67     0.264 C 
HETATM   22  N51 STI A 201      20.591  45.685  22.132  1.00 48.74    -0.072 N 
HETATM   23  H51 STI A 201      20.093  44.789  22.570  1.00  0.00     0.279 HD
HETATM   24  C50 STI A 201      20.627  45.500  20.614  1.00 45.31     0.264 C 
HETATM   25  C54 STI A 201      21.965  45.731  22.654  1.00 49.83     0.269 C 
HETATM   26  C49 STI A 201      19.166  45.389  20.071  1.00 44.33     0.300 C 
ENDBRANCH  18  19
ENDBRANCH  15  18
ENDBRANCH   9  12
ENDBRANCH   5   8
BRANCH   1  27
HETATM   27  N13 STI A 201      14.802  54.906  12.440  1.00 32.90    -0.188 N 
HETATM   28  H13 STI A 201      13.914  54.616  12.032  1.00  0.00     0.184 HD
BRANCH  27  29
HETATM   29  C9  STI A 201      14.998  56.235  12.782  1.00 33.83     0.727 A 
HETATM   30  N10 STI A 201      16.198  56.691  13.296  1.00 32.08    -0.075 NA
HETATM   31  C11 STI A 201      16.373  58.019  13.623  1.00 35.42     0.139 A 
HETATM   32  C12 STI A 201      15.319  58.941  13.432  1.00 30.85     0.053 A 
HETATM   33  C7  STI A 201      14.089  58.435  12.896  1.00 33.05     0.089 A 
HETATM   34  N8  STI A 201      13.976  57.096  12.593  1.00 33.44    -0.062 NA
BRANCH  33  35
HETATM   35  C5  STI A 201      12.885  59.285  12.634  1.00 33.74     0.011 A 
HETATM   36  C4  STI A 201      11.890  58.824  11.679  1.00 31.40     0.130 A 
HETATM   37  N3  STI A 201      10.763  59.599  11.422  1.00 33.76    -0.272 NA
HETATM   38  C2  STI A 201      10.536  60.831  12.054  1.00 35.46     0.116 A 
HETATM   39  C1  STI A 201      11.482  61.348  13.007  1.00 35.17     0.020 A 
HETATM   40  C6  STI A 201      12.661  60.565  13.295  1.00 32.96     0.017 A 
ENDBRANCH  33  35
ENDBRANCH  27  29
ENDBRANCH   1  27
TORSDOF 7
BEGIN_RES THR A 315
REMARK  2 active torsions:
REMARK  status: ('A' for Active; 'I' for Inactive)
REMARK    1  A    between atoms: CA   and  CB  
REMARK    2  A    between atoms: CB   and  OG1 
ROOT
ATOM      1  CA  THR A 315      13.079  52.503   8.093  1.00 45.40     0.205 C 
ENDROOT
BRANCH   1   2
ATOM      2  CB  THR A 315      13.429  52.900   9.553  1.00 45.76     0.146 C 
ATOM      3  CG2 THR A 315      14.083  51.789  10.296  1.00 42.73     0.042 C 
BRANCH   2   4
ATOM      4  OG1 THR A 315      14.266  54.063   9.540  1.00 47.20    -0.393 OA
ATOM      5  HG1 THR A 315      14.975  53.903   9.960  1.00 47.20     0.210 HD
ENDBRANCH   2   4
ENDBRANCH   1   2
END_RES THR A 315
ENDMDL
MODEL 2
REMARK VINA RESULT:   -10.200      2.456     12.245
REMARK ITER + INTRA:          -15.827
REMARK INTER:                 -13.980
REMARK INTRA:                  -1.847
REMARK UNBOUND:                -1.452
REMARK  7 active torsions:
REMARK  status: ('A' for Active; 'I' for Inactive)
REMARK    1  A    between atoms: C5_3  and  C7_7 
REMARK    2  A    between atoms: C9_11  and  N13_13 
REMARK    3  A    between atoms: N13_13  and  C14_15 
REMARK    4  A    between atoms: C16_19  and  N21_21 
REMARK       I    between atoms: N21_21  and  C22_23 
REMARK    5  A    between atoms: C22_23  and  C23_24 
REMARK    6  A    between atoms: C27_27  and  C46_30 
REMARK    7  A    between atoms: C46_30  and  N48_31 
ROOT
HETATM    1  C14 STI A 201      16.529  48.103  17.301  1.00 32.92     0.057 A 
HETATM    2  C19 STI A 201      15.201  47.738  17.809  1.00 28.09    -0.035 A 
HETATM    3  C18 STI A 201      14.108  48.632  17.553  1.00 26.77     0.011 A 
HETATM    4  C17 STI A 201      14.314  49.853  16.814  1.00 25.91     0.030 A 
HETATM    5  C16 STI A 201      15.601  50.208  16.316  1.00 30.34     0.037 A 
HETATM    6  C15 STI A 201      16.714  49.307  16.575  1.00 29.33     0.060 A 
HETATM    7  C20 STI A 201      14.920  46.440  18.601  1.00 26.25     0.050 C 
ENDROOT
BRANCH   5   8
HETATM    8  N21 STI A 201      15.727  51.441  15.579  1.00 31.22    -0.323 N 
HETATM    9  C22 STI A 201      15.291  51.711  14.292  1.00 33.27     0.256 C 
HETATM   10  O29 STI A 201      14.914  50.863  13.497  1.00 38.89    -0.267 OA
HETATM   11  H21 STI A 201      16.194  52.207  16.064  1.00  0.00     0.169 HD
BRANCH   9  12
HETATM   12  C23 STI A 201      15.287  53.127  13.814  1.00 31.14     0.032 A 
HETATM   13  C25 STI A 201      16.534  53.879  13.653  1.00 34.22     0.017 A 
HETATM   14  C26 STI A 201      16.501  55.249  13.206  1.00 31.64     0.010 A 
HETATM   15  C27 STI A 201      15.214  55.876  12.916  1.00 38.05    -0.030 A 
HETATM   16  C28 STI A 201      13.992  55.106  13.079  1.00 29.43     0.010 A 
HETATM   17  C29 STI A 201      14.021  53.763  13.517  1.00 34.20     0.017 A 
BRANCH  15  18
HETATM   18  C46 STI A 201      15.082  57.340  12.454  1.00 35.44     0.311 C 
BRANCH  18  19
HETATM   19  N48 STI A 201      13.778  58.022  12.709  1.00 46.28     0.095 N 
HETATM   20  C53 STI A 201      14.003  59.394  13.296  1.00 45.06     0.300 C 
HETATM   21  C52 STI A 201      12.657  60.114  13.588  1.00 46.67     0.264 C 
HETATM   22  N51 STI A 201      11.808  60.207  12.328  1.00 48.74    -0.072 N 
HETATM   23  H51 STI A 201      12.382  60.800  11.578  1.00  0.00     0.279 HD
HETATM   24  C50 STI A 201      11.557  58.822  11.730  1.00 45.31     0.264 C 
HETATM   25  C54 STI A 201      10.524  60.887  12.548  1.00 49.83     0.269 C 
HETATM   26  C49 STI A 201      12.927  58.126  11.441  1.00 44.33     0.300 C 
ENDBRANCH  18  19
ENDBRANCH  15  18
ENDBRANCH   9  12
ENDBRANCH   5   8
BRANCH   1  27
HETATM   27  N13 STI A 201      17.632  47.275  17.521  1.00 32.90    -0.188 N 
HETATM   28  H13 STI A 201      17.891  46.584  16.817  1.00  0.00     0.184 HD
BRANCH  27  29
HETATM   29  C9  STI A 201      18.378  47.382  18.684  1.00 33.83     0.727 A 
HETATM   30  N10 STI A 201      18.159  46.560  19.774  1.00 32.08    -0.075 NA
HETATM   31  C11 STI A 201      18.918  46.678  20.918  1.00 35.42     0.139 A 
HETATM   32  C12 STI A 201      19.941  47.650  20.993  1.00 30.85     0.053 A 
HETATM   33  C7  STI A 201      20.142  48.485  19.844  1.00 33.05     0.089 A 
HETATM   34  N8  STI A 201      19.348  48.319  18.731  1.00 33.44    -0.062 NA
BRANCH  33  35
HETATM   35  C5  STI A 201      21.187  49.555  19.768  1.00 33.74     0.011 A 
HETATM   36  C4  STI A 201      21.404  50.410  20.925  1.00 31.40     0.130 A 
HETATM   37  N3  STI A 201      22.370  51.410  20.877  1.00 33.76    -0.272 NA
HETATM   38  C2  STI A 201      23.162  51.639  19.741  1.00 35.46     0.116 A 
HETATM   39  C1  STI A 201      22.996  50.832  18.561  1.00 35.17     0.020 A 
HETATM   40  C6  STI A 201      22.002  49.785  18.582  1.00 32.96     0.017 A 
ENDBRANCH  33  35
ENDBRANCH  27  29
ENDBRANCH   1  27
TORSDOF 7
BEGIN_RES THR A 315
REMARK  2 active torsions:
REMARK  status: ('A' for Active; 'I' for Inactive)
REMARK    1  A    between atoms: CA   and  CB  
REMARK    2  A    between atoms: CB   and  OG1 
ROOT
ATOM      1  CA  THR A 315      13.079  52.503   8.093  1.00 45.40     0.205 C 
ENDROOT
BRANCH   1   2
ATOM      2  CB  THR A 315      13.429  52.900   9.553  1.00 45.76     0.146 C 
ATOM      3  CG2 THR A 315      13.731  51.715  10.400  1.00 42.73     0.042 C 
BRANCH   2   4
ATOM      4  OG1 THR A 315      14.534  53.811   9.543  1.00 47.20    -0.393 OA
ATOM      5  HG1 THR A 315      14.337  54.496   9.988  1.00 47.20     0.210 HD
ENDBRANCH   2   4
ENDBRANCH   1   2
END_RES THR A 315
ENDMDL
MODEL 3
REMARK VINA RESULT:    -9.759      2.060     12.263
REMARK ITER + INTRA:          -15.205
REMARK INTER:                 -13.495
REMARK INTRA:                  -1.711
REMARK UNBOUND:                -1.452
REMARK  7 active torsions:
REMARK  status: ('A' for Active; 'I' for Inactive)
REMARK    1  A    between atoms: C5_3  and  C7_7 
REMARK    2  A    between atoms: C9_11  and  N13_13 
REMARK    3  A    between atoms: N13_13  and  C14_15 
REMARK    4  A    between atoms: C16_19  and  N21_21 
REMARK       I    between atoms: N21_21  and  C22_23 
REMARK    5  A    between atoms: C22_23  and  C23_24 
REMARK    6  A    between atoms: C27_27  and  C46_30 
REMARK    7  A    between atoms: C46_30  and  N48_31 
ROOT
HETATM    1  C14 STI A 201      15.156  47.190  18.602  1.00 32.92     0.057 A 
HETATM    2  C19 STI A 201      13.816  46.974  19.161  1.00 28.09    -0.035 A 
HETATM    3  C18 STI A 201      12.795  47.939  18.866  1.00 26.77     0.011 A 
HETATM    4  C17 STI A 201      13.083  49.086  18.041  1.00 25.91     0.030 A 
HETATM    5  C16 STI A 201      14.383  49.297  17.494  1.00 30.34     0.037 A 
HETATM    6  C15 STI A 201      15.422  48.323  17.792  1.00 29.33     0.060 A 
HETATM    7  C20 STI A 201      13.448  45.760  20.046  1.00 26.25     0.050 C 
ENDROOT
BRANCH   5   8
HETATM    8  N21 STI A 201      14.592  50.462  16.671  1.00 31.22    -0.323 N 
HETATM    9  C22 STI A 201      15.697  50.768  15.894  1.00 33.27     0.256 C 
HETATM   10  O29 STI A 201      16.769  50.185  15.956  1.00 38.89    -0.267 OA
HETATM   11  H21 STI A 201      13.833  51.144  16.660  1.00  0.00     0.169 HD
BRANCH   9  12
HETATM   12  C23 STI A 201      15.602  51.895  14.916  1.00 31.14     0.032 A 
HETATM   13  C25 STI A 201      16.593  52.060  13.849  1.00 34.22     0.017 A 
HETATM   14  C26 STI A 201      16.487  53.165  12.930  1.00 31.64     0.010 A 
HETATM   15  C27 STI A 201      15.385  54.113  13.073  1.00 38.05    -0.030 A 
HETATM   16  C28 STI A 201      14.413  53.922  14.137  1.00 29.43     0.010 A 
HETATM   17  C29 STI A 201      14.514  52.841  15.041  1.00 34.20     0.017 A 
BRANCH  15  18
HETATM   18  C46 STI A 201      15.206  55.333  12.150  1.00 35.44     0.311 C 
BRANCH  18  19
HETATM   19  N48 STI A 201      14.429  56.490  12.688  1.00 46.28     0.095 N 
HETATM   20  C53 STI A 201      15.323  57.693  12.864  1.00 45.06     0.300 C 
HETATM   21  C52 STI A 201      14.538  58.903  13.444  1.00 46.67     0.264 C 
HETATM   22  N51 STI A 201      13.348  59.249  12.560  1.00 48.74    -0.072 N 
HETATM   23  H51 STI A 201      13.742  59.521  11.554  1.00  0.00     0.279 HD
HETATM   24  C50 STI A 201      12.423  58.043  12.386  1.00 45.31     0.264 C 
HETATM   25  C54 STI A 201      12.572  60.394  13.060  1.00 49.83     0.269 C 
HETATM   26  C49 STI A 201      13.237  56.846  11.796  1.00 44.33     0.300 C 
ENDBRANCH  18  19
ENDBRANCH  15  18
ENDBRANCH   9  12
ENDBRANCH   5   8
BRANCH   1  27
HETATM   27  N13 STI A 201      16.191  46.287  18.855  1.00 32.90    -0.188 N 
HETATM   28  H13 STI A 201      16.212  45.394  18.365  1.00  0.00     0.184 HD
BRANCH  27  29
HETATM   29  C9  STI A 201      17.190  46.593  19.767  1.00 33.83     0.727 A 
HETATM   30  N10 STI A 201      17.001  46.468  21.131  1.00 32.08    -0.075 NA
HETATM   31  C11 STI A 201      18.012  46.770  22.018  1.00 35.42     0.139 A 
HETATM   32  C12 STI A 201      19.266  47.213  21.542  1.00 30.85     0.053 A 
HETATM   33  C7  STI A 201      19.428  47.329  20.121  1.00 33.05     0.089 A 
HETATM   34  N8  STI A 201      18.379  47.015  19.287  1.00 33.44    -0.062 NA
BRANCH  33  35
HETATM   35  C5  STI A 201      20.695  47.780  19.465  1.00 33.74     0.011 A 
HETATM   36  C4  STI A 201      20.865  49.192  19.155  1.00 31.40     0.130 A 
HETATM   37  N3  STI A 201      22.036  49.632  18.546  1.00 33.76    -0.272 NA
HETATM   38  C2  STI A 201      23.084  48.762  18.208  1.00 35.46     0.116 A 
HETATM   39  C1  STI A 201      22.980  47.353  18.483  1.00 35.17     0.020 A 
HETATM   40  C6  STI A 201      21.776  46.866  19.117  1.00 32.96     0.017 A 
ENDBRANCH  33  35
ENDBRANCH  27  29
ENDBRANCH   1  27
TORSDOF 7
BEGIN_RES THR A 315
REMARK  2 active torsions:
REMARK  status: ('A' for Active; 'I' for Inactive)
REMARK    1  A    between atoms: CA   and  CB  
REMARK    2  A    between atoms: CB   and  OG1 
ROOT
ATOM      1  CA  THR A 315      13.079  52.503   8.093  1.00 45.40     0.205 C 
ENDROOT
BRANCH   1   2
ATOM      2  CB  THR A 315      13.429  52.900   9.553  1.00 45.76     0.146 C 
ATOM      3  CG2 THR A 315      13.453  51.724  10.465  1.00 42.73     0.042 C 
BRANCH   2   4
ATOM      4  OG1 THR A 315      14.690  53.580   9.569  1.00 47.20    -0.393 OA
ATOM      5  HG1 THR A 315      14.610  54.328   9.195  1.00 47.20     0.210 HD
ENDBRANCH   2   4
ENDBRANCH   1   2
END_RES THR A 315
ENDMDL
MODEL 4
REMARK VINA RESULT:    -8.872      2.445     12.090
REMARK ITER + INTRA:          -13.954
REMARK INTER:                 -12.351
REMARK INTRA:                  -1.603
REMARK UNBOUND:                -1.452
REMARK  7 active torsions:
REMARK  status: ('A' for Active; 'I' for Inactive)
REMARK    1  A    between atoms: C5_3  and  C7_7 
REMARK    2  A    between atoms: C9_11  and  N13_13 
REMARK    3  A    between atoms: N13_13  and  C14_15 
REMARK    4  A    between atoms: C16_19  and  N21_21 
REMARK       I    between atoms: N21_21  and  C22_23 
REMARK    5  A    between atoms: C22_23  and  C23_24 
REMARK    6  A    between atoms: C27_27  and  C46_30 
REMARK    7  A    between atoms: C46_30  and  N48_31 
ROOT
HETATM    1  C14 STI A 201      18.067  46.908  18.805  1.00 32.92     0.057 A 
HETATM    2  C19 STI A 201      16.922  46.673  19.692  1.00 28.09    -0.035 A 
HETATM    3  C18 STI A 201      15.757  47.495  19.528  1.00 26.77     0.011 A 
HETATM    4  C17 STI A 201      15.719  48.521  18.516  1.00 25.91     0.030 A 
HETATM    5  C16 STI A 201      16.828  48.750  17.650  1.00 30.34     0.037 A 
HETATM    6  C15 STI A 201      18.012  47.921  17.814  1.00 29.33     0.060 A 
HETATM    7  C20 STI A 201      16.905  45.583  20.790  1.00 26.25     0.050 C 
ENDROOT
BRANCH   5   8
HETATM    8  N21 STI A 201      16.711  49.788  16.657  1.00 31.22    -0.323 N 
HETATM    9  C22 STI A 201      15.580  50.172  15.955  1.00 33.27     0.256 C 
HETATM   10  O29 STI A 201      14.538  49.534  15.922  1.00 38.89    -0.267 OA
HETATM   11  H21 STI A 201      17.566  50.302  16.445  1.00  0.00     0.169 HD
BRANCH   9  12
HETATM   12  C23 STI A 201      15.616  51.440  15.165  1.00 31.14     0.032 A 
HETATM   13  C25 STI A 201      14.488  52.375  15.177  1.00 34.22     0.017 A 
HETATM   14  C26 STI A 201      14.541  53.583  14.392  1.00 31.64     0.010 A 
HETATM   15  C27 STI A 201      15.730  53.864  13.590  1.00 38.05    -0.030 A 
HETATM   16  C28 STI A 201      16.837  52.922  13.601  1.00 29.43     0.010 A 
HETATM   17  C29 STI A 201      16.787  51.736  14.368  1.00 34.20     0.017 A 
BRANCH  15  18
HETATM   18  C46 STI A 201      15.865  55.118  12.706  1.00 35.44     0.311 C 
BRANCH  18  19
HETATM   19  N48 STI A 201      15.002  56.289  13.045  1.00 46.28     0.095 N 
HETATM   20  C53 STI A 201      15.787  57.574  12.938  1.00 45.06     0.300 C 
HETATM   21  C52 STI A 201      14.912  58.804  13.307  1.00 46.67     0.264 C 
HETATM   22  N51 STI A 201      13.669  58.866  12.431  1.00 48.74    -0.072 N 
HETATM   23  H51 STI A 201      14.005  58.964  11.373  1.00  0.00     0.279 HD
HETATM   24  C50 STI A 201      12.853  57.577  12.541  1.00 45.31     0.264 C 
HETATM   25  C54 STI A 201      12.807  60.019  12.734  1.00 49.83     0.269 C 
HETATM   26  C49 STI A 201      13.755  56.359  12.159  1.00 44.33     0.300 C 
ENDBRANCH  18  19
ENDBRANCH  15  18
ENDBRANCH   9  12
ENDBRANCH   5   8
BRANCH   1  27
HETATM   27  N13 STI A 201      19.229  46.141  18.918  1.00 32.90    -0.188 N 
HETATM   28  H13 STI A 201      19.167  45.124  18.887  1.00  0.00     0.184 HD
BRANCH  27  29
HETATM   29  C9  STI A 201      20.466  46.748  19.072  1.00 33.83     0.727 A 
HETATM   30  N10 STI A 201      21.585  46.317  18.383  1.00 32.08    -0.075 NA
HETATM   31  C11 STI A 201      22.804  46.940  18.545  1.00 35.42     0.139 A 
HETATM   32  C12 STI A 201      22.927  48.040  19.424  1.00 30.85     0.053 A 
HETATM   33  C7  STI A 201      21.746  48.462  20.120  1.00 33.05     0.089 A 
HETATM   34  N8  STI A 201      20.558  47.796  19.917  1.00 33.44    -0.062 NA
BRANCH  33  35
HETATM   35  C5  STI A 201      21.715  49.611  21.079  1.00 33.74     0.011 A 
HETATM   36  C4  STI A 201      22.711  50.664  20.951  1.00 31.40     0.130 A 
HETATM   37  N3  STI A 201      22.699  51.741  21.831  1.00 33.76    -0.272 NA
HETATM   38  C2  STI A 201      21.753  51.864  22.860  1.00 35.46     0.116 A 
HETATM   39  C1  STI A 201      20.742  50.857  23.046  1.00 35.17     0.020 A 
HETATM   40  C6  STI A 201      20.728  49.727  22.146  1.00 32.96     0.017 A 
ENDBRANCH  33  35
ENDBRANCH  27  29
ENDBRANCH   1  27
TORSDOF 7
BEGIN_RES THR A 315
REMARK  2 active torsions:
REMARK  status: ('A' for Active; 'I' for Inactive)
REMARK    1  A    between atoms: CA   and  CB  
REMARK    2  A    between atoms: CB   and  OG1 
ROOT
ATOM      1  CA  THR A 315      13.079  52.503   8.093  1.00 45.40     0.205 C 
ENDROOT
BRANCH   1   2
ATOM      2  CB  THR A 315      13.429  52.900   9.553  1.00 45.76     0.146 C 
ATOM      3  CG2 THR A 315      13.544  51.715  10.445  1.00 42.73     0.042 C 
BRANCH   2   4
ATOM      4  OG1 THR A 315      14.644  53.659   9.559  1.00 47.20    -0.393 OA
ATOM      5  HG1 THR A 315      14.638  54.194  10.207  1.00 47.20     0.210 HD
ENDBRANCH   2   4
ENDBRANCH   1   2
END_RES THR A 315
ENDMDL
MODEL 5
REMARK VINA RESULT:    -8.449      2.322     11.636
REMARK ITER + INTRA:          -13.359
REMARK INTER:                 -13.118
REMARK INTRA:                  -0.241
REMARK UNBOUND:                -1.452
REMARK  7 active torsions:
REMARK  status: ('A' for Active; 'I' for Inactive)
REMARK    1  A    between atoms: C5_3  and  C7_7 
REMARK    2  A    between atoms: C9_11  and  N13_13 
REMARK    3  A    between atoms: N13_13  and  C14_15 
REMARK    4  A    between atoms: C16_19  and  N21_21 
REMARK       I    between atoms: N21_21  and  C22_23 
REMARK    5  A    between atoms: C22_23  and  C23_24 
REMARK    6  A    between atoms: C27_27  and  C46_30 
REMARK    7  A    between atoms: C46_30  and  N48_31 
ROOT
HETATM    1  C14 STI A 201      16.163  47.555  19.487  1.00 32.92     0.057 A 
HETATM    2  C19 STI A 201      14.764  47.130  19.614  1.00 28.09    -0.035 A 
HETATM    3  C18 STI A 201      13.793  47.723  18.739  1.00 26.77     0.011 A 
HETATM    4  C17 STI A 201      14.187  48.708  17.763  1.00 25.91     0.030 A 
HETATM    5  C16 STI A 201      15.546  49.120  17.634  1.00 30.34     0.037 A 
HETATM    6  C15 STI A 201      16.534  48.524  18.520  1.00 29.33     0.060 A 
HETATM    7  C20 STI A 201      14.285  46.074  20.638  1.00 26.25     0.050 C 
ENDROOT
BRANCH   5   8
HETATM    8  N21 STI A 201      15.864  50.103  16.629  1.00 31.22    -0.323 N 
HETATM    9  C22 STI A 201      15.117  50.457  15.517  1.00 33.27     0.256 C 
HETATM   10  O29 STI A 201      14.156  49.827  15.101  1.00 38.89    -0.267 OA
HETATM   11  H21 STI A 201      16.748  50.598  16.751  1.00  0.00     0.169 HD
BRANCH   9  12
HETATM   12  C23 STI A 201      15.502  51.679  14.748  1.00 31.14     0.032 A 
HETATM   13  C25 STI A 201      14.834  52.963  14.977  1.00 34.22     0.017 A 
HETATM   14  C26 STI A 201      15.213  54.123  14.209  1.00 31.64     0.010 A 
HETATM   15  C27 STI A 201      16.268  54.004  13.205  1.00 38.05    -0.030 A 
HETATM   16  C28 STI A 201      16.918  52.719  13.002  1.00 29.43     0.010 A 
HETATM   17  C29 STI A 201      16.548  51.580  13.752  1.00 34.20     0.017 A 
BRANCH  15  18
HETATM   18  C46 STI A 201      16.722  55.183  12.325  1.00 35.44     0.311 C 
BRANCH  18  19
HETATM   19  N48 STI A 201      15.807  56.360  12.234  1.00 46.28     0.095 N 
HETATM   20  C53 STI A 201      14.368  55.923  12.349  1.00 45.06     0.300 C 
HETATM   21  C52 STI A 201      13.397  57.132  12.235  1.00 46.67     0.264 C 
HETATM   22  N51 STI A 201      13.718  58.185  13.286  1.00 48.74    -0.072 N 
HETATM   23  H51 STI A 201      13.593  57.711  14.288  1.00  0.00     0.279 HD
HETATM   24  C50 STI A 201      15.170  58.651  13.172  1.00 45.31     0.264 C 
HETATM   25  C54 STI A 201      12.823  59.349  13.227  1.00 49.83     0.269 C 
HETATM   26  C49 STI A 201      16.122  57.417  13.296  1.00 44.33     0.300 C 
ENDBRANCH  18  19
ENDBRANCH  15  18
ENDBRANCH   9  12
ENDBRANCH   5   8
BRANCH   1  27
HETATM   27  N13 STI A 201      17.153  47.015  20.311  1.00 32.90    -0.188 N 
HETATM   28  H13 STI A 201      16.913  46.711  21.254  1.00  0.00     0.184 HD
BRANCH  27  29
HETATM   29  C9  STI A 201      18.458  46.889  19.861  1.00 33.83     0.727 A 
HETATM   30  N10 STI A 201      19.045  45.654  19.654  1.00 32.08    -0.075 NA
HETATM   31  C11 STI A 201      20.342  45.551  19.199  1.00 35.42     0.139 A 
HETATM   32  C12 STI A 201      21.095  46.717  18.933  1.00 30.85     0.053 A 
HETATM   33  C7  STI A 201      20.454  47.981  19.156  1.00 33.05     0.089 A 
HETATM   34  N8  STI A 201      19.157  48.016  19.616  1.00 33.44    -0.062 NA
BRANCH  33  35
HETATM   35  C5  STI A 201      21.118  49.301  18.918  1.00 33.74     0.011 A 
HETATM   36  C4  STI A 201      20.295  50.498  18.830  1.00 31.40     0.130 A 
HETATM   37  N3  STI A 201      20.893  51.736  18.610  1.00 33.76    -0.272 NA
HETATM   38  C2  STI A 201      22.280  51.888  18.465  1.00 35.46     0.116 A 
HETATM   39  C1  STI A 201      23.151  50.746  18.538  1.00 35.17     0.020 A 
HETATM   40  C6  STI A 201      22.561  49.447  18.767  1.00 32.96     0.017 A 
ENDBRANCH  33  35
ENDBRANCH  27  29
ENDBRANCH   1  27
TORSDOF 7
BEGIN_RES THR A 315
REMARK  2 active torsions:
REMARK  status: ('A' for Active; 'I' for Inactive)
REMARK    1  A    between atoms: CA   and  CB  
REMARK    2  A    between atoms: CB   and  OG1 
ROOT
ATOM      1  CA  THR A 315      13.079  52.503   8.093  1.00 45.40     0.205 C 
ENDROOT
BRANCH   1   2
ATOM      2  CB  THR A 315      13.429  52.900   9.553  1.00 45.76     0.146 C 
ATOM      3  CG2 THR A 315      13.587  51.713  10.435  1.00 42.73     0.042 C 
BRANCH   2   4
ATOM      4  OG1 THR A 315      14.621  53.695   9.554  1.00 47.20    -0.393 OA
ATOM      5  HG1 THR A 315      14.865  53.836   8.763  1.00 47.20     0.210 HD
ENDBRANCH   2   4
ENDBRANCH   1   2
END_RES THR A 315
ENDMDL
