REMARK  10 active torsions:
REMARK  status: ('A' for Active; 'I' for Inactive)
REMARK    1  A    between atoms: CA1_1  and  CB1_4 
REMARK    2  A    between atoms: CA1_1  and  C1_10 
REMARK    3  A    between atoms: CA1_1  and  N1_11 
REMARK    4  A    between atoms: CA2_2  and  CB2_5 
REMARK    5  A    between atoms: CA2_2  and  C2_15 
REMARK    6  A    between atoms: CA2_2  and  N2_16 
REMARK    7  A    between atoms: CA3_3  and  C3_19 
REMARK    8  A    between atoms: CA3_3  and  N3_20 
REMARK    9  A    between atoms: CB1_4  and  CG1_6 
REMARK   10  A    between atoms: CG1_6  and  CD1_8 
REMARK       I    between atoms: CD1_8  and  N2_16 
REMARK       I    between atoms: C2_15  and  N3_20 
ROOT
HETATM    1  CD1 GSH A 210      11.904   8.151  26.176  1.00 75.17     0.218 C 
HETATM    2  OE1 GSH A 210      11.170   8.008  25.193  1.00 75.35    -0.274 OA
HETATM    3  N2  GSH A 210      11.589   7.729  27.397  1.00 75.35    -0.347 N 
ATOM      4  H2  GSH A 210      12.248   7.898  28.156  1.00  0.00     0.163 HD
ENDROOT
BRANCH   3   5
HETATM    5  CA2 GSH A 210      10.345   7.036  27.698  1.00 75.19     0.186 C 
BRANCH   5   6
HETATM    6  CB2 GSH A 210      10.585   5.521  27.753  1.00 75.74     0.120 C 
HETATM    7  SG2 GSH A 210      11.440   4.813  26.310  1.00 76.23    -0.095 SA
ENDBRANCH   5   6
BRANCH   5   8
HETATM    8  C2  GSH A 210       9.835   7.523  29.054  1.00 74.65     0.241 C 
HETATM    9  O2  GSH A 210      10.623   7.766  29.973  1.00 73.83    -0.271 OA
HETATM   10  N3  GSH A 210       8.520   7.663  29.172  1.00 74.50    -0.349 N 
ATOM     11  H3  GSH A 210       7.917   7.449  28.378  1.00  0.00     0.163 HD
BRANCH  10  12
HETATM   12  CA3 GSH A 210       7.932   8.116  30.417  1.00 74.66     0.235 C 
BRANCH  12  13
HETATM   13  C3  GSH A 210       7.340   9.505  30.290  1.00 74.96     0.191 C 
HETATM   14  O31 GSH A 210       7.761  10.251  29.379  1.00 74.82    -0.647 OA
HETATM   15  O32 GSH A 210       6.438   9.842  31.087  1.00 75.16    -0.647 OA
ENDBRANCH  12  13
ENDBRANCH  10  12
ENDBRANCH   5   8
ENDBRANCH   3   5
BRANCH   1  16
HETATM   16  CG1 GSH A 210      13.237   8.843  26.061  1.00 74.50     0.105 C 
BRANCH  16  17
HETATM   17  CB1 GSH A 210      13.422   9.543  24.740  1.00 74.00     0.053 C 
BRANCH  17  18
HETATM   18  CA1 GSH A 210      14.820  10.124  24.553  1.00 73.72     0.283 C 
BRANCH  18  19
HETATM   19  C1  GSH A 210      15.860   9.001  24.508  1.00 73.51     0.204 C 
HETATM   20  O11 GSH A 210      16.281   8.656  23.381  1.00 73.55    -0.646 OA
HETATM   21  O12 GSH A 210      16.269   8.500  25.582  1.00 72.23    -0.646 OA
ENDBRANCH  18  19
BRANCH  18  22
HETATM   22  N1  GSH A 210      14.887  10.883  23.275  1.00 73.31    -0.065 N 
ATOM     23  H13 GSH A 210      14.598  10.316  22.478  1.00  0.00     0.275 HD
ATOM     24  H12 GSH A 210      14.164  11.600  23.217  1.00  0.00     0.275 HD
ATOM     25  H11 GSH A 210      15.822  11.271  23.150  1.00  0.00     0.275 HD
ENDBRANCH  18  22
ENDBRANCH  17  18
ENDBRANCH  16  17
ENDBRANCH   1  16
TORSDOF 10
