MODEL 1
REMARK VINA RESULT:      -7.7      0.000      0.000
REMARK  Name = 10gs_ligand
REMARK  14 active torsions:
REMARK  status: ('A' for Active; 'I' for Inactive)
REMARK    1  A    between atoms: N_1  and  CA_2
REMARK    2  A    between atoms: CA_2  and  C_3
REMARK    3  A    between atoms: CA_2  and  CB_5
REMARK    4  A    between atoms: CB_5  and  CG_6
REMARK    5  A    between atoms: CG_6  and  CD_7
REMARK    6  A    between atoms: N_10  and  CA_11
REMARK    7  A    between atoms: CA_11  and  CB_12
REMARK    8  A    between atoms: CA_11  and  C_21
REMARK    9  A    between atoms: CB_12  and  SG_13
REMARK   10  A    between atoms: SG_13  and  CD_14
REMARK   11  A    between atoms: CD_14  and  CE_15
REMARK   12  A    between atoms: N_23  and  CA_24
REMARK   13  A    between atoms: CA_24  and  CB_25
REMARK   14  A    between atoms: CA_24  and  C_31
REMARK                            x       y       z     vdW  Elec       q    Type
REMARK                         _______ _______ _______ _____ _____    ______ ____
ROOT
ATOM      1  C   UNK A   1       9.391   7.135  27.304  0.00  0.00    +0.221 C 
ENDROOT
BRANCH   1   3
ATOM      2  C   UNK A   1      11.348   7.876  26.037  0.00  0.00    +0.178 C 
ATOM      3  N   UNK A   1      10.791   7.518  27.190  0.00  0.00    -0.265 N 
ATOM      4  H   UNK A   1      11.358   7.512  28.014  0.00  0.00    +0.188 HD
ATOM      5  O   UNK A   1      10.722   7.967  24.982  0.00  0.00    -0.397 OA
BRANCH   2   6
ATOM      6  C   UNK A   1      12.815   8.219  26.107  0.00  0.00    +0.145 C 
BRANCH   6   7
ATOM      7  C   UNK A   1      13.354   8.838  24.832  0.00  0.00    +0.092 C 
BRANCH   7   8
ATOM      8  C   UNK A   1      14.606   9.684  25.067  0.00  0.00    +0.133 C 
BRANCH   8   9
ATOM      9  N   UNK A   1      14.576  10.898  24.207  0.00  0.00    +0.233 N 
ATOM     10  H   UNK A   1      13.637  11.050  23.873  0.00  0.00    +0.201 HD
ATOM     11  H   UNK A   1      14.874  11.698  24.744  0.00  0.00    +0.201 HD
ATOM     12  H   UNK A   1      15.196  10.770  23.423  0.00  0.00    +0.201 HD
ENDBRANCH   8   9
BRANCH   8  13
ATOM     13  C   UNK A   1      15.867   8.852  24.804  0.00  0.00    +0.085 C 
ATOM     14  O   UNK A   1      16.427   8.315  25.780  0.00  0.00    -0.564 OA
ATOM     15  O   UNK A   1      16.273   8.728  23.628  0.00  0.00    -0.564 OA
ENDBRANCH   8  13
ENDBRANCH   7   8
ENDBRANCH   6   7
ENDBRANCH   2   6
ENDBRANCH   1   3
BRANCH   1  16
ATOM     16  C   UNK A   1       8.894   7.315  28.725  0.00  0.00    +0.206 C 
ATOM     17  N   UNK A   2       7.721   6.758  28.989  0.00  0.00    -0.259 N 
ATOM     18  H   UNK A   2       7.233   6.294  28.250  0.00  0.00    +0.190 HD
ATOM     19  O   UNK A   1       9.572   7.907  29.565  0.00  0.00    -0.394 OA
BRANCH  17  20
ATOM     20  C   UNK A   2       7.117   6.792  30.308  0.00  0.00    +0.216 C 
BRANCH  20  21
ATOM     21  C   UNK A   2       6.818   5.421  30.823  0.00  0.00    -0.005 A 
ATOM     22  C   UNK A   2       6.143   5.261  32.025  0.00  0.00    -0.000 A 
ATOM     23  C   UNK A   2       5.921   3.996  32.554  0.00  0.00    -0.008 A 
ATOM     24  C   UNK A   2       6.377   2.872  31.878  0.00  0.00    -0.013 A 
ATOM     25  C   UNK A   2       7.050   3.019  30.673  0.00  0.00    -0.008 A 
ATOM     26  C   UNK A   2       7.267   4.290  30.151  0.00  0.00    -0.000 A 
ENDBRANCH  20  21
BRANCH  20  27
ATOM     27  C   UNK A   2       5.977   7.799  30.447  0.00  0.00    +0.072 C 
ATOM     28  O   UNK A   2       4.907   7.597  29.834  0.00  0.00    -0.564 OA
ATOM     29  O   UNK A   2       6.180   8.792  31.171  0.00  0.00    -0.564 OA
ENDBRANCH  20  27
ENDBRANCH  17  20
ENDBRANCH   1  16
BRANCH   1  30
ATOM     30  C   UNK A   1       9.219   5.658  26.947  0.00  0.00    +0.121 C 
BRANCH  30  31
ATOM     31  S   UNK A   1      10.393   4.538  27.693  0.00  0.00    -0.142 S 
BRANCH  31  32
ATOM     32  C   UNK A   1       9.836   2.972  26.987  0.00  0.00    +0.135 C 
BRANCH  32  33
ATOM     33  C   UNK A   1      10.393   2.691  25.617  0.00  0.00    -0.033 A 
ATOM     34  C   UNK A   1      10.386   1.399  25.095  0.00  0.00    -0.004 A 
ATOM     35  C   UNK A   1      10.902   1.140  23.824  0.00  0.00    -0.009 A 
ATOM     36  C   UNK A   1      11.431   2.178  23.067  0.00  0.00    -0.013 A 
ATOM     37  C   UNK A   1      11.443   3.474  23.580  0.00  0.00    -0.009 A 
ATOM     38  C   UNK A   1      10.926   3.722  24.848  0.00  0.00    -0.004 A 
ENDBRANCH  32  33
ENDBRANCH  31  32
ENDBRANCH  30  31
ENDBRANCH   1  30
TORSDOF 14
ENDMDL
MODEL 2
REMARK VINA RESULT:      -7.6      3.538      7.906
REMARK  Name = 10gs_ligand
REMARK  14 active torsions:
REMARK  status: ('A' for Active; 'I' for Inactive)
REMARK    1  A    between atoms: N_1  and  CA_2
REMARK    2  A    between atoms: CA_2  and  C_3
REMARK    3  A    between atoms: CA_2  and  CB_5
REMARK    4  A    between atoms: CB_5  and  CG_6
REMARK    5  A    between atoms: CG_6  and  CD_7
REMARK    6  A    between atoms: N_10  and  CA_11
REMARK    7  A    between atoms: CA_11  and  CB_12
REMARK    8  A    between atoms: CA_11  and  C_21
REMARK    9  A    between atoms: CB_12  and  SG_13
REMARK   10  A    between atoms: SG_13  and  CD_14
REMARK   11  A    between atoms: CD_14  and  CE_15
REMARK   12  A    between atoms: N_23  and  CA_24
REMARK   13  A    between atoms: CA_24  and  CB_25
REMARK   14  A    between atoms: CA_24  and  C_31
REMARK                            x       y       z     vdW  Elec       q    Type
REMARK                         _______ _______ _______ _____ _____    ______ ____
ROOT
ATOM      1  C   UNK A   1      11.048   7.968  25.628  0.00  0.00    +0.221 C 
ENDROOT
BRANCH   1   3
ATOM      2  C   UNK A   1      10.225   8.269  23.344  0.00  0.00    +0.178 C 
ATOM      3  N   UNK A   1      10.641   7.469  24.321  0.00  0.00    -0.265 N 
ATOM      4  H   UNK A   1      10.677   6.485  24.151  0.00  0.00    +0.188 HD
ATOM      5  O   UNK A   1      10.198   9.495  23.437  0.00  0.00    -0.397 OA
BRANCH   2   6
ATOM      6  C   UNK A   1       9.825   7.574  22.067  0.00  0.00    +0.145 C 
BRANCH   6   7
ATOM      7  C   UNK A   1      10.459   8.173  20.827  0.00  0.00    +0.092 C 
BRANCH   7   8
ATOM      8  C   UNK A   1       9.427   8.722  19.840  0.00  0.00    +0.133 C 
BRANCH   8   9
ATOM      9  N   UNK A   1       9.339   7.841  18.644  0.00  0.00    +0.233 N 
ATOM     10  H   UNK A   1       9.266   6.880  18.939  0.00  0.00    +0.201 HD
ATOM     11  H   UNK A   1       8.525   8.089  18.103  0.00  0.00    +0.201 HD
ATOM     12  H   UNK A   1      10.165   7.958  18.079  0.00  0.00    +0.201 HD
ENDBRANCH   8   9
BRANCH   8  13
ATOM     13  C   UNK A   1       9.783  10.160  19.443  0.00  0.00    +0.085 C 
ATOM     14  O   UNK A   1      10.096  10.956  20.350  0.00  0.00    -0.564 OA
ATOM     15  O   UNK A   1       9.764  10.473  18.232  0.00  0.00    -0.564 OA
ENDBRANCH   8  13
ENDBRANCH   7   8
ENDBRANCH   6   7
ENDBRANCH   2   6
ENDBRANCH   1   3
BRANCH   1  16
ATOM     16  C   UNK A   1      12.542   7.802  25.829  0.00  0.00    +0.206 C 
ATOM     17  N   UNK A   2      13.276   8.859  25.511  0.00  0.00    -0.259 N 
ATOM     18  H   UNK A   2      12.818   9.666  25.138  0.00  0.00    +0.190 HD
ATOM     19  O   UNK A   1      13.009   6.763  26.295  0.00  0.00    -0.394 OA
BRANCH  17  20
ATOM     20  C   UNK A   2      14.716   8.893  25.683  0.00  0.00    +0.216 C 
BRANCH  20  21
ATOM     21  C   UNK A   2      15.134   9.893  26.713  0.00  0.00    -0.005 A 
ATOM     22  C   UNK A   2      15.807   9.477  27.853  0.00  0.00    -0.000 A 
ATOM     23  C   UNK A   2      16.138  10.382  28.853  0.00  0.00    -0.008 A 
ATOM     24  C   UNK A   2      15.795  11.720  28.719  0.00  0.00    -0.013 A 
ATOM     25  C   UNK A   2      15.125  12.149  27.582  0.00  0.00    -0.008 A 
ATOM     26  C   UNK A   2      14.798  11.235  26.584  0.00  0.00    -0.000 A 
ENDBRANCH  20  21
BRANCH  20  27
ATOM     27  C   UNK A   2      15.500   8.946  24.373  0.00  0.00    +0.072 C 
ATOM     28  O   UNK A   2      14.906   9.258  23.319  0.00  0.00    -0.564 OA
ATOM     29  O   UNK A   2      16.712   8.662  24.423  0.00  0.00    -0.564 OA
ENDBRANCH  20  27
ENDBRANCH  17  20
ENDBRANCH   1  16
BRANCH   1  30
ATOM     30  C   UNK A   1      10.351   7.174  26.733  0.00  0.00    +0.121 C 
BRANCH  30  31
ATOM     31  S   UNK A   1       9.553   5.662  26.219  0.00  0.00    -0.142 S 
BRANCH  31  32
ATOM     32  C   UNK A   1      10.437   4.467  27.243  0.00  0.00    +0.135 C 
BRANCH  32  33
ATOM     33  C   UNK A   1       9.537   3.617  28.100  0.00  0.00    -0.033 A 
ATOM     34  C   UNK A   1       9.750   2.246  28.218  0.00  0.00    -0.004 A 
ATOM     35  C   UNK A   1       8.916   1.459  29.013  0.00  0.00    -0.009 A 
ATOM     36  C   UNK A   1       7.858   2.045  29.697  0.00  0.00    -0.013 A 
ATOM     37  C   UNK A   1       7.635   3.416  29.586  0.00  0.00    -0.009 A 
ATOM     38  C   UNK A   1       8.473   4.192  28.790  0.00  0.00    -0.004 A 
ENDBRANCH  32  33
ENDBRANCH  31  32
ENDBRANCH  30  31
ENDBRANCH   1  30
TORSDOF 14
ENDMDL
MODEL 3
REMARK VINA RESULT:      -7.6      4.230      6.667
REMARK  Name = 10gs_ligand
REMARK  14 active torsions:
REMARK  status: ('A' for Active; 'I' for Inactive)
REMARK    1  A    between atoms: N_1  and  CA_2
REMARK    2  A    between atoms: CA_2  and  C_3
REMARK    3  A    between atoms: CA_2  and  CB_5
REMARK    4  A    between atoms: CB_5  and  CG_6
REMARK    5  A    between atoms: CG_6  and  CD_7
REMARK    6  A    between atoms: N_10  and  CA_11
REMARK    7  A    between atoms: CA_11  and  CB_12
REMARK    8  A    between atoms: CA_11  and  C_21
REMARK    9  A    between atoms: CB_12  and  SG_13
REMARK   10  A    between atoms: SG_13  and  CD_14
REMARK   11  A    between atoms: CD_14  and  CE_15
REMARK   12  A    between atoms: N_23  and  CA_24
REMARK   13  A    between atoms: CA_24  and  CB_25
REMARK   14  A    between atoms: CA_24  and  C_31
REMARK                            x       y       z     vdW  Elec       q    Type
REMARK                         _______ _______ _______ _____ _____    ______ ____
ROOT
ATOM      1  C   UNK A   1       9.842   2.755  27.553  0.00  0.00    +0.221 C 
ENDROOT
BRANCH   1   3
ATOM      2  C   UNK A   1      10.513   2.120  25.288  0.00  0.00    +0.178 C 
ATOM      3  N   UNK A   1       9.865   2.942  26.109  0.00  0.00    -0.265 N 
ATOM      4  H   UNK A   1       9.374   3.720  25.718  0.00  0.00    +0.188 HD
ATOM      5  O   UNK A   1      11.099   1.107  25.666  0.00  0.00    -0.397 OA
BRANCH   2   6
ATOM      6  C   UNK A   1      10.444   2.483  23.825  0.00  0.00    +0.145 C 
BRANCH   6   7
ATOM      7  C   UNK A   1      11.751   2.269  23.087  0.00  0.00    +0.092 C 
BRANCH   7   8
ATOM      8  C   UNK A   1      11.691   1.100  22.103  0.00  0.00    +0.133 C 
BRANCH   8   9
ATOM      9  N   UNK A   1      11.548  -0.185  22.839  0.00  0.00    +0.233 N 
ATOM     10  H   UNK A   1      12.443  -0.460  23.213  0.00  0.00    +0.201 HD
ATOM     11  H   UNK A   1      10.890  -0.069  23.594  0.00  0.00    +0.201 HD
ATOM     12  H   UNK A   1      11.213  -0.898  22.210  0.00  0.00    +0.201 HD
ENDBRANCH   8   9
BRANCH   8  13
ATOM     13  C   UNK A   1      12.939   1.090  21.211  0.00  0.00    +0.085 C 
ATOM     14  O   UNK A   1      13.973   1.633  21.648  0.00  0.00    -0.564 OA
ATOM     15  O   UNK A   1      12.879   0.527  20.096  0.00  0.00    -0.564 OA
ENDBRANCH   8  13
ENDBRANCH   7   8
ENDBRANCH   6   7
ENDBRANCH   2   6
ENDBRANCH   1   3
BRANCH   1  16
ATOM     16  C   UNK A   1       8.422   2.563  28.051  0.00  0.00    +0.206 C 
ATOM     17  N   UNK A   2       8.313   2.201  29.321  0.00  0.00    -0.259 N 
ATOM     18  H   UNK A   2       9.147   2.048  29.850  0.00  0.00    +0.190 HD
ATOM     19  O   UNK A   1       7.458   2.776  27.316  0.00  0.00    -0.394 OA
BRANCH  17  20
ATOM     20  C   UNK A   2       7.031   2.017  29.975  0.00  0.00    +0.216 C 
BRANCH  20  21
ATOM     21  C   UNK A   2       6.641   3.209  30.788  0.00  0.00    -0.005 A 
ATOM     22  C   UNK A   2       6.762   4.485  30.256  0.00  0.00    -0.000 A 
ATOM     23  C   UNK A   2       6.474   5.606  31.023  0.00  0.00    -0.008 A 
ATOM     24  C   UNK A   2       6.058   5.458  32.339  0.00  0.00    -0.013 A 
ATOM     25  C   UNK A   2       5.929   4.187  32.882  0.00  0.00    -0.008 A 
ATOM     26  C   UNK A   2       6.219   3.070  32.106  0.00  0.00    -0.000 A 
ENDBRANCH  20  21
BRANCH  20  27
ATOM     27  C   UNK A   2       6.878   0.672  30.682  0.00  0.00    +0.072 C 
ATOM     28  O   UNK A   2       7.902   0.042  31.024  0.00  0.00    -0.564 OA
ATOM     29  O   UNK A   2       5.718   0.261  30.879  0.00  0.00    -0.564 OA
ENDBRANCH  20  27
ENDBRANCH  17  20
ENDBRANCH   1  16
BRANCH   1  30
ATOM     30  C   UNK A   1      10.404   3.993  28.253  0.00  0.00    +0.121 C 
BRANCH  30  31
ATOM     31  S   UNK A   1      10.252   5.529  27.353  0.00  0.00    -0.142 S 
BRANCH  31  32
ATOM     32  C   UNK A   1      10.518   6.712  28.691  0.00  0.00    +0.135 C 
BRANCH  32  33
ATOM     33  C   UNK A   1       9.301   7.532  29.028  0.00  0.00    -0.033 A 
ATOM     34  C   UNK A   1       8.211   7.581  28.161  0.00  0.00    -0.004 A 
ATOM     35  C   UNK A   1       7.083   8.340  28.475  0.00  0.00    -0.009 A 
ATOM     36  C   UNK A   1       7.040   9.057  29.664  0.00  0.00    -0.013 A 
ATOM     37  C   UNK A   1       8.124   9.015  30.538  0.00  0.00    -0.009 A 
ATOM     38  C   UNK A   1       9.245   8.255  30.216  0.00  0.00    -0.004 A 
ENDBRANCH  32  33
ENDBRANCH  31  32
ENDBRANCH  30  31
ENDBRANCH   1  30
TORSDOF 14
ENDMDL
MODEL 4
REMARK VINA RESULT:      -7.5      3.574      5.446
REMARK  Name = 10gs_ligand
REMARK  14 active torsions:
REMARK  status: ('A' for Active; 'I' for Inactive)
REMARK    1  A    between atoms: N_1  and  CA_2
REMARK    2  A    between atoms: CA_2  and  C_3
REMARK    3  A    between atoms: CA_2  and  CB_5
REMARK    4  A    between atoms: CB_5  and  CG_6
REMARK    5  A    between atoms: CG_6  and  CD_7
REMARK    6  A    between atoms: N_10  and  CA_11
REMARK    7  A    between atoms: CA_11  and  CB_12
REMARK    8  A    between atoms: CA_11  and  C_21
REMARK    9  A    between atoms: CB_12  and  SG_13
REMARK   10  A    between atoms: SG_13  and  CD_14
REMARK   11  A    between atoms: CD_14  and  CE_15
REMARK   12  A    between atoms: N_23  and  CA_24
REMARK   13  A    between atoms: CA_24  and  CB_25
REMARK   14  A    between atoms: CA_24  and  C_31
REMARK                            x       y       z     vdW  Elec       q    Type
REMARK                         _______ _______ _______ _____ _____    ______ ____
ROOT
ATOM      1  C   UNK A   1       7.870   6.483  29.103  0.00  0.00    +0.221 C 
ENDROOT
BRANCH   1   3
ATOM      2  C   UNK A   1      10.126   5.988  28.298  0.00  0.00    +0.178 C 
ATOM      3  N   UNK A   1       8.917   5.572  28.661  0.00  0.00    -0.265 N 
ATOM      4  H   UNK A   1       8.718   4.592  28.629  0.00  0.00    +0.188 HD
ATOM      5  O   UNK A   1      10.484   7.163  28.355  0.00  0.00    -0.397 OA
BRANCH   2   6
ATOM      6  C   UNK A   1      11.074   4.903  27.849  0.00  0.00    +0.145 C 
BRANCH   6   7
ATOM      7  C   UNK A   1      10.979   4.591  26.368  0.00  0.00    +0.092 C 
BRANCH   7   8
ATOM      8  C   UNK A   1      10.237   3.284  26.085  0.00  0.00    +0.133 C 
BRANCH   8   9
ATOM      9  N   UNK A   1      10.198   2.439  27.309  0.00  0.00    +0.233 N 
ATOM     10  H   UNK A   1      10.937   1.756  27.269  0.00  0.00    +0.201 HD
ATOM     11  H   UNK A   1      10.321   3.021  28.123  0.00  0.00    +0.201 HD
ATOM     12  H   UNK A   1       9.307   1.969  27.364  0.00  0.00    +0.201 HD
ENDBRANCH   8   9
BRANCH   8  13
ATOM     13  C   UNK A   1      10.898   2.539  24.919  0.00  0.00    +0.085 C 
ATOM     14  O   UNK A   1      12.143   2.527  24.865  0.00  0.00    -0.564 OA
ATOM     15  O   UNK A   1      10.170   1.961  24.082  0.00  0.00    -0.564 OA
ENDBRANCH   8  13
ENDBRANCH   7   8
ENDBRANCH   6   7
ENDBRANCH   2   6
ENDBRANCH   1   3
BRANCH   1  16
ATOM     16  C   UNK A   1       7.212   5.975  30.372  0.00  0.00    +0.206 C 
ATOM     17  N   UNK A   2       6.899   4.687  30.370  0.00  0.00    -0.259 N 
ATOM     18  H   UNK A   2       7.079   4.151  29.545  0.00  0.00    +0.190 HD
ATOM     19  O   UNK A   1       7.031   6.720  31.335  0.00  0.00    -0.394 OA
BRANCH  17  20
ATOM     20  C   UNK A   2       6.306   4.024  31.516  0.00  0.00    +0.216 C 
BRANCH  20  21
ATOM     21  C   UNK A   2       6.666   2.574  31.572  0.00  0.00    -0.005 A 
ATOM     22  C   UNK A   2       6.435   1.844  32.730  0.00  0.00    -0.000 A 
ATOM     23  C   UNK A   2       6.831   0.517  32.825  0.00  0.00    -0.008 A 
ATOM     24  C   UNK A   2       7.466  -0.096  31.753  0.00  0.00    -0.013 A 
ATOM     25  C   UNK A   2       7.700   0.622  30.589  0.00  0.00    -0.008 A 
ATOM     26  C   UNK A   2       7.299   1.952  30.503  0.00  0.00    -0.000 A 
ENDBRANCH  20  21
BRANCH  20  27
ATOM     27  C   UNK A   2       4.823   4.331  31.717  0.00  0.00    +0.072 C 
ATOM     28  O   UNK A   2       4.478   5.087  32.650  0.00  0.00    -0.564 OA
ATOM     29  O   UNK A   2       4.019   3.795  30.930  0.00  0.00    -0.564 OA
ENDBRANCH  20  27
ENDBRANCH  17  20
ENDBRANCH   1  16
BRANCH   1  30
ATOM     30  C   UNK A   1       6.779   6.587  28.038  0.00  0.00    +0.121 C 
BRANCH  30  31
ATOM     31  S   UNK A   1       6.798   5.320  26.779  0.00  0.00    -0.142 S 
BRANCH  31  32
ATOM     32  C   UNK A   1       5.120   5.481  26.135  0.00  0.00    +0.135 C 
BRANCH  32  33
ATOM     33  C   UNK A   1       5.053   6.080  24.755  0.00  0.00    -0.033 A 
ATOM     34  C   UNK A   1       3.860   6.601  24.260  0.00  0.00    -0.004 A 
ATOM     35  C   UNK A   1       3.800   7.157  22.981  0.00  0.00    -0.009 A 
ATOM     36  C   UNK A   1       4.940   7.192  22.188  0.00  0.00    -0.013 A 
ATOM     37  C   UNK A   1       6.139   6.674  22.673  0.00  0.00    -0.009 A 
ATOM     38  C   UNK A   1       6.189   6.121  23.950  0.00  0.00    -0.004 A 
ENDBRANCH  32  33
ENDBRANCH  31  32
ENDBRANCH  30  31
ENDBRANCH   1  30
TORSDOF 14
ENDMDL
MODEL 5
REMARK VINA RESULT:      -7.4      3.481      5.311
REMARK  Name = 10gs_ligand
REMARK  14 active torsions:
REMARK  status: ('A' for Active; 'I' for Inactive)
REMARK    1  A    between atoms: N_1  and  CA_2
REMARK    2  A    between atoms: CA_2  and  C_3
REMARK    3  A    between atoms: CA_2  and  CB_5
REMARK    4  A    between atoms: CB_5  and  CG_6
REMARK    5  A    between atoms: CG_6  and  CD_7
REMARK    6  A    between atoms: N_10  and  CA_11
REMARK    7  A    between atoms: CA_11  and  CB_12
REMARK    8  A    between atoms: CA_11  and  C_21
REMARK    9  A    between atoms: CB_12  and  SG_13
REMARK   10  A    between atoms: SG_13  and  CD_14
REMARK   11  A    between atoms: CD_14  and  CE_15
REMARK   12  A    between atoms: N_23  and  CA_24
REMARK   13  A    between atoms: CA_24  and  CB_25
REMARK   14  A    between atoms: CA_24  and  C_31
REMARK                            x       y       z     vdW  Elec       q    Type
REMARK                         _______ _______ _______ _____ _____    ______ ____
ROOT
ATOM      1  C   UNK A   1      10.236   6.017  27.142  0.00  0.00    +0.221 C 
ENDROOT
BRANCH   1   3
ATOM      2  C   UNK A   1      11.082   4.097  25.884  0.00  0.00    +0.178 C 
ATOM      3  N   UNK A   1      10.061   4.788  26.381  0.00  0.00    -0.265 N 
ATOM      4  H   UNK A   1       9.133   4.448  26.227  0.00  0.00    +0.188 HD
ATOM      5  O   UNK A   1      12.260   4.403  26.066  0.00  0.00    -0.397 OA
BRANCH   2   6
ATOM      6  C   UNK A   1      10.708   2.861  25.105  0.00  0.00    +0.145 C 
BRANCH   6   7
ATOM      7  C   UNK A   1      11.260   2.843  23.694  0.00  0.00    +0.092 C 
BRANCH   7   8
ATOM      8  C   UNK A   1      10.850   1.594  22.912  0.00  0.00    +0.133 C 
BRANCH   8   9
ATOM      9  N   UNK A   1      10.341   0.550  23.842  0.00  0.00    +0.233 N 
ATOM     10  H   UNK A   1       9.658   0.956  24.462  0.00  0.00    +0.201 HD
ATOM     11  H   UNK A   1       9.912  -0.193  23.311  0.00  0.00    +0.201 HD
ATOM     12  H   UNK A   1      11.107   0.178  24.381  0.00  0.00    +0.201 HD
ENDBRANCH   8   9
BRANCH   8  13
ATOM     13  C   UNK A   1      12.031   1.071  22.086  0.00  0.00    +0.085 C 
ATOM     14  O   UNK A   1      13.053   1.782  22.013  0.00  0.00    -0.564 OA
ATOM     15  O   UNK A   1      11.934  -0.047  21.536  0.00  0.00    -0.564 OA
ENDBRANCH   8  13
ENDBRANCH   7   8
ENDBRANCH   6   7
ENDBRANCH   2   6
ENDBRANCH   1   3
BRANCH   1  16
ATOM     16  C   UNK A   1       9.357   6.019  28.378  0.00  0.00    +0.206 C 
ATOM     17  N   UNK A   2       8.440   5.063  28.420  0.00  0.00    -0.259 N 
ATOM     18  H   UNK A   2       8.362   4.438  27.643  0.00  0.00    +0.190 HD
ATOM     19  O   UNK A   1       9.532   6.836  29.281  0.00  0.00    -0.394 OA
BRANCH  17  20
ATOM     20  C   UNK A   2       7.543   4.887  29.547  0.00  0.00    +0.216 C 
BRANCH  20  21
ATOM     21  C   UNK A   2       7.471   3.461  29.987  0.00  0.00    -0.005 A 
ATOM     22  C   UNK A   2       6.792   3.125  31.151  0.00  0.00    -0.000 A 
ATOM     23  C   UNK A   2       6.777   1.816  31.613  0.00  0.00    -0.008 A 
ATOM     24  C   UNK A   2       7.447   0.824  30.909  0.00  0.00    -0.013 A 
ATOM     25  C   UNK A   2       8.126   1.146  29.742  0.00  0.00    -0.008 A 
ATOM     26  C   UNK A   2       8.135   2.460  29.287  0.00  0.00    -0.000 A 
ENDBRANCH  20  21
BRANCH  20  27
ATOM     27  C   UNK A   2       6.194   5.585  29.387  0.00  0.00    +0.072 C 
ATOM     28  O   UNK A   2       5.466   5.289  28.415  0.00  0.00    -0.564 OA
ATOM     29  O   UNK A   2       5.887   6.434  30.245  0.00  0.00    -0.564 OA
ENDBRANCH  20  27
ENDBRANCH  17  20
ENDBRANCH   1  16
BRANCH   1  30
ATOM     30  C   UNK A   1       9.829   7.223  26.295  0.00  0.00    +0.121 C 
BRANCH  30  31
ATOM     31  S   UNK A   1      10.992   7.711  25.030  0.00  0.00    -0.142 S 
BRANCH  31  32
ATOM     32  C   UNK A   1      10.334   6.798  23.619  0.00  0.00    +0.135 C 
BRANCH  32  33
ATOM     33  C   UNK A   1       8.840   6.905  23.469  0.00  0.00    -0.033 A 
ATOM     34  C   UNK A   1       8.255   8.061  22.956  0.00  0.00    -0.004 A 
ATOM     35  C   UNK A   1       6.870   8.158  22.816  0.00  0.00    -0.009 A 
ATOM     36  C   UNK A   1       6.060   7.095  23.193  0.00  0.00    -0.013 A 
ATOM     37  C   UNK A   1       6.634   5.934  23.708  0.00  0.00    -0.009 A 
ATOM     38  C   UNK A   1       8.017   5.846  23.843  0.00  0.00    -0.004 A 
ENDBRANCH  32  33
ENDBRANCH  31  32
ENDBRANCH  30  31
ENDBRANCH   1  30
TORSDOF 14
ENDMDL
MODEL 6
REMARK VINA RESULT:      -7.4      3.417      7.591
REMARK  Name = 10gs_ligand
REMARK  14 active torsions:
REMARK  status: ('A' for Active; 'I' for Inactive)
REMARK    1  A    between atoms: N_1  and  CA_2
REMARK    2  A    between atoms: CA_2  and  C_3
REMARK    3  A    between atoms: CA_2  and  CB_5
REMARK    4  A    between atoms: CB_5  and  CG_6
REMARK    5  A    between atoms: CG_6  and  CD_7
REMARK    6  A    between atoms: N_10  and  CA_11
REMARK    7  A    between atoms: CA_11  and  CB_12
REMARK    8  A    between atoms: CA_11  and  C_21
REMARK    9  A    between atoms: CB_12  and  SG_13
REMARK   10  A    between atoms: SG_13  and  CD_14
REMARK   11  A    between atoms: CD_14  and  CE_15
REMARK   12  A    between atoms: N_23  and  CA_24
REMARK   13  A    between atoms: CA_24  and  CB_25
REMARK   14  A    between atoms: CA_24  and  C_31
REMARK                            x       y       z     vdW  Elec       q    Type
REMARK                         _______ _______ _______ _____ _____    ______ ____
ROOT
ATOM      1  C   UNK A   1      11.053   8.075  25.244  0.00  0.00    +0.221 C 
ENDROOT
BRANCH   1   3
ATOM      2  C   UNK A   1       9.801   9.121  23.421  0.00  0.00    +0.178 C 
ATOM      3  N   UNK A   1      10.910   8.542  23.872  0.00  0.00    -0.265 N 
ATOM      4  H   UNK A   1      11.678   8.423  23.243  0.00  0.00    +0.188 HD
ATOM      5  O   UNK A   1       8.825   9.362  24.130  0.00  0.00    -0.397 OA
BRANCH   2   6
ATOM      6  C   UNK A   1       9.827   9.521  21.966  0.00  0.00    +0.145 C 
BRANCH   6   7
ATOM      7  C   UNK A   1       9.696  11.016  21.747  0.00  0.00    +0.092 C 
BRANCH   7   8
ATOM      8  C   UNK A   1      11.025  11.756  21.902  0.00  0.00    +0.133 C 
BRANCH   8   9
ATOM      9  N   UNK A   1      12.112  11.014  21.208  0.00  0.00    +0.233 N 
ATOM     10  H   UNK A   1      12.914  10.947  21.814  0.00  0.00    +0.201 HD
ATOM     11  H   UNK A   1      11.789  10.088  20.974  0.00  0.00    +0.201 HD
ATOM     12  H   UNK A   1      12.368  11.503  20.364  0.00  0.00    +0.201 HD
ENDBRANCH   8   9
BRANCH   8  13
ATOM     13  C   UNK A   1      11.353  11.956  23.387  0.00  0.00    +0.085 C 
ATOM     14  O   UNK A   1      10.605  12.696  24.055  0.00  0.00    -0.564 OA
ATOM     15  O   UNK A   1      12.338  11.359  23.872  0.00  0.00    -0.564 OA
ENDBRANCH   8  13
ENDBRANCH   7   8
ENDBRANCH   6   7
ENDBRANCH   2   6
ENDBRANCH   1   3
BRANCH   1  16
ATOM     16  C   UNK A   1      12.515   7.937  25.619  0.00  0.00    +0.206 C 
ATOM     17  N   UNK A   2      13.307   8.900  25.168  0.00  0.00    -0.259 N 
ATOM     18  H   UNK A   2      12.911   9.619  24.598  0.00  0.00    +0.190 HD
ATOM     19  O   UNK A   1      12.905   7.009  26.326  0.00  0.00    -0.394 OA
BRANCH  17  20
ATOM     20  C   UNK A   2      14.726   8.952  25.469  0.00  0.00    +0.216 C 
BRANCH  20  21
ATOM     21  C   UNK A   2      15.027   9.898  26.587  0.00  0.00    -0.005 A 
ATOM     22  C   UNK A   2      14.689  11.239  26.474  0.00  0.00    -0.000 A 
ATOM     23  C   UNK A   2      15.027  12.144  27.471  0.00  0.00    -0.008 A 
ATOM     24  C   UNK A   2      15.712  11.711  28.599  0.00  0.00    -0.013 A 
ATOM     25  C   UNK A   2      16.052  10.371  28.725  0.00  0.00    -0.008 A 
ATOM     26  C   UNK A   2      15.709   9.472  27.721  0.00  0.00    -0.000 A 
ENDBRANCH  20  21
BRANCH  20  27
ATOM     27  C   UNK A   2      15.620   9.096  24.240  0.00  0.00    +0.072 C 
ATOM     28  O   UNK A   2      16.820   8.753  24.314  0.00  0.00    -0.564 OA
ATOM     29  O   UNK A   2      15.100   9.564  23.209  0.00  0.00    -0.564 OA
ENDBRANCH  20  27
ENDBRANCH  17  20
ENDBRANCH   1  16
BRANCH   1  30
ATOM     30  C   UNK A   1      10.412   6.695  25.399  0.00  0.00    +0.121 C 
BRANCH  30  31
ATOM     31  S   UNK A   1       9.014   6.608  26.507  0.00  0.00    -0.142 S 
BRANCH  31  32
ATOM     32  C   UNK A   1       9.814   5.942  27.982  0.00  0.00    +0.135 C 
BRANCH  32  33
ATOM     33  C   UNK A   1       9.373   4.546  28.334  0.00  0.00    -0.033 A 
ATOM     34  C   UNK A   1      10.158   3.444  28.002  0.00  0.00    -0.004 A 
ATOM     35  C   UNK A   1       9.748   2.151  28.331  0.00  0.00    -0.009 A 
ATOM     36  C   UNK A   1       8.544   1.954  28.995  0.00  0.00    -0.013 A 
ATOM     37  C   UNK A   1       7.751   3.049  29.332  0.00  0.00    -0.009 A 
ATOM     38  C   UNK A   1       8.168   4.335  29.000  0.00  0.00    -0.004 A 
ENDBRANCH  32  33
ENDBRANCH  31  32
ENDBRANCH  30  31
ENDBRANCH   1  30
TORSDOF 14
ENDMDL
MODEL 7
REMARK VINA RESULT:      -7.3      3.901      5.758
REMARK  Name = 10gs_ligand
REMARK  14 active torsions:
REMARK  status: ('A' for Active; 'I' for Inactive)
REMARK    1  A    between atoms: N_1  and  CA_2
REMARK    2  A    between atoms: CA_2  and  C_3
REMARK    3  A    between atoms: CA_2  and  CB_5
REMARK    4  A    between atoms: CB_5  and  CG_6
REMARK    5  A    between atoms: CG_6  and  CD_7
REMARK    6  A    between atoms: N_10  and  CA_11
REMARK    7  A    between atoms: CA_11  and  CB_12
REMARK    8  A    between atoms: CA_11  and  C_21
REMARK    9  A    between atoms: CB_12  and  SG_13
REMARK   10  A    between atoms: SG_13  and  CD_14
REMARK   11  A    between atoms: CD_14  and  CE_15
REMARK   12  A    between atoms: N_23  and  CA_24
REMARK   13  A    between atoms: CA_24  and  CB_25
REMARK   14  A    between atoms: CA_24  and  C_31
REMARK                            x       y       z     vdW  Elec       q    Type
REMARK                         _______ _______ _______ _____ _____    ______ ____
ROOT
ATOM      1  C   UNK A   1       9.597   5.840  27.468  0.00  0.00    +0.221 C 
ENDROOT
BRANCH   1   3
ATOM      2  C   UNK A   1      10.715   4.034  26.255  0.00  0.00    +0.178 C 
ATOM      3  N   UNK A   1       9.608   4.564  26.766  0.00  0.00    -0.265 N 
ATOM      4  H   UNK A   1       8.747   4.067  26.663  0.00  0.00    +0.188 HD
ATOM      5  O   UNK A   1      11.829   4.541  26.378  0.00  0.00    -0.397 OA
BRANCH   2   6
ATOM      6  C   UNK A   1      10.531   2.716  25.544  0.00  0.00    +0.145 C 
BRANCH   6   7
ATOM      7  C   UNK A   1      11.431   2.550  24.335  0.00  0.00    +0.092 C 
BRANCH   7   8
ATOM      8  C   UNK A   1      10.833   1.625  23.274  0.00  0.00    +0.133 C 
BRANCH   8   9
ATOM      9  N   UNK A   1      10.279   0.400  23.912  0.00  0.00    +0.233 N 
ATOM     10  H   UNK A   1       9.273   0.425  23.869  0.00  0.00    +0.201 HD
ATOM     11  H   UNK A   1      10.617  -0.415  23.424  0.00  0.00    +0.201 HD
ATOM     12  H   UNK A   1      10.573   0.361  24.876  0.00  0.00    +0.201 HD
ENDBRANCH   8   9
BRANCH   8  13
ATOM     13  C   UNK A   1      11.890   1.270  22.221  0.00  0.00    +0.085 C 
ATOM     14  O   UNK A   1      11.567   0.482  21.311  0.00  0.00    -0.564 OA
ATOM     15  O   UNK A   1      13.022   1.795  22.302  0.00  0.00    -0.564 OA
ENDBRANCH   8  13
ENDBRANCH   7   8
ENDBRANCH   6   7
ENDBRANCH   2   6
ENDBRANCH   1   3
BRANCH   1  16
ATOM     16  C   UNK A   1       8.663   5.792  28.662  0.00  0.00    +0.206 C 
ATOM     17  N   UNK A   2       7.930   4.692  28.762  0.00  0.00    -0.259 N 
ATOM     18  H   UNK A   2       8.011   3.996  28.049  0.00  0.00    +0.190 HD
ATOM     19  O   UNK A   1       8.637   6.706  29.486  0.00  0.00    -0.394 OA
BRANCH  17  20
ATOM     20  C   UNK A   2       7.018   4.457  29.865  0.00  0.00    +0.216 C 
BRANCH  20  21
ATOM     21  C   UNK A   2       7.163   3.080  30.429  0.00  0.00    -0.005 A 
ATOM     22  C   UNK A   2       7.849   2.105  29.718  0.00  0.00    -0.000 A 
ATOM     23  C   UNK A   2       7.930   0.803  30.193  0.00  0.00    -0.008 A 
ATOM     24  C   UNK A   2       7.321   0.463  31.393  0.00  0.00    -0.013 A 
ATOM     25  C   UNK A   2       6.635   1.429  32.116  0.00  0.00    -0.008 A 
ATOM     26  C   UNK A   2       6.559   2.732  31.632  0.00  0.00    -0.000 A 
ENDBRANCH  20  21
BRANCH  20  27
ATOM     27  C   UNK A   2       5.581   4.897  29.592  0.00  0.00    +0.072 C 
ATOM     28  O   UNK A   2       5.148   5.936  30.133  0.00  0.00    -0.564 OA
ATOM     29  O   UNK A   2       4.900   4.179  28.835  0.00  0.00    -0.564 OA
ENDBRANCH  20  27
ENDBRANCH  17  20
ENDBRANCH   1  16
BRANCH   1  30
ATOM     30  C   UNK A   1       9.091   6.946  26.542  0.00  0.00    +0.121 C 
BRANCH  30  31
ATOM     31  S   UNK A   1       7.317   7.097  26.407  0.00  0.00    -0.142 S 
BRANCH  31  32
ATOM     32  C   UNK A   1       7.002   5.970  25.033  0.00  0.00    +0.135 C 
BRANCH  32  33
ATOM     33  C   UNK A   1       5.876   6.407  24.135  0.00  0.00    -0.033 A 
ATOM     34  C   UNK A   1       4.556   6.379  24.579  0.00  0.00    -0.004 A 
ATOM     35  C   UNK A   1       3.513   6.787  23.746  0.00  0.00    -0.009 A 
ATOM     36  C   UNK A   1       3.788   7.224  22.457  0.00  0.00    -0.013 A 
ATOM     37  C   UNK A   1       5.105   7.257  22.002  0.00  0.00    -0.009 A 
ATOM     38  C   UNK A   1       6.138   6.849  22.840  0.00  0.00    -0.004 A 
ENDBRANCH  32  33
ENDBRANCH  31  32
ENDBRANCH  30  31
ENDBRANCH   1  30
TORSDOF 14
ENDMDL
MODEL 8
REMARK VINA RESULT:      -7.0      3.627      5.462
REMARK  Name = 10gs_ligand
REMARK  14 active torsions:
REMARK  status: ('A' for Active; 'I' for Inactive)
REMARK    1  A    between atoms: N_1  and  CA_2
REMARK    2  A    between atoms: CA_2  and  C_3
REMARK    3  A    between atoms: CA_2  and  CB_5
REMARK    4  A    between atoms: CB_5  and  CG_6
REMARK    5  A    between atoms: CG_6  and  CD_7
REMARK    6  A    between atoms: N_10  and  CA_11
REMARK    7  A    between atoms: CA_11  and  CB_12
REMARK    8  A    between atoms: CA_11  and  C_21
REMARK    9  A    between atoms: CB_12  and  SG_13
REMARK   10  A    between atoms: SG_13  and  CD_14
REMARK   11  A    between atoms: CD_14  and  CE_15
REMARK   12  A    between atoms: N_23  and  CA_24
REMARK   13  A    between atoms: CA_24  and  CB_25
REMARK   14  A    between atoms: CA_24  and  C_31
REMARK                            x       y       z     vdW  Elec       q    Type
REMARK                         _______ _______ _______ _____ _____    ______ ____
ROOT
ATOM      1  C   UNK A   1       7.915   7.147  28.944  0.00  0.00    +0.221 C 
ENDROOT
BRANCH   1   3
ATOM      2  C   UNK A   1      10.237   6.434  28.659  0.00  0.00    +0.178 C 
ATOM      3  N   UNK A   1       8.941   6.253  28.426  0.00  0.00    -0.265 N 
ATOM      4  H   UNK A   1       8.658   5.470  27.872  0.00  0.00    +0.188 HD
ATOM      5  O   UNK A   1      10.679   7.333  29.373  0.00  0.00    -0.397 OA
BRANCH   2   6
ATOM      6  C   UNK A   1      11.155   5.419  28.025  0.00  0.00    +0.145 C 
BRANCH   6   7
ATOM      7  C   UNK A   1      10.587   4.013  28.013  0.00  0.00    +0.092 C 
BRANCH   7   8
ATOM      8  C   UNK A   1      10.455   3.439  26.601  0.00  0.00    +0.133 C 
BRANCH   8   9
ATOM      9  N   UNK A   1      11.568   3.925  25.742  0.00  0.00    +0.233 N 
ATOM     10  H   UNK A   1      11.190   4.413  24.946  0.00  0.00    +0.201 HD
ATOM     11  H   UNK A   1      12.154   4.551  26.273  0.00  0.00    +0.201 HD
ATOM     12  H   UNK A   1      12.116   3.140  25.426  0.00  0.00    +0.201 HD
ENDBRANCH   8   9
BRANCH   8  13
ATOM     13  C   UNK A   1       9.092   3.808  26.003  0.00  0.00    +0.085 C 
ATOM     14  O   UNK A   1       8.078   3.625  26.703  0.00  0.00    -0.564 OA
ATOM     15  O   UNK A   1       9.051   4.293  24.851  0.00  0.00    -0.564 OA
ENDBRANCH   8  13
ENDBRANCH   7   8
ENDBRANCH   6   7
ENDBRANCH   2   6
ENDBRANCH   1   3
BRANCH   1  16
ATOM     16  C   UNK A   1       7.325   6.605  30.232  0.00  0.00    +0.206 C 
ATOM     17  N   UNK A   2       6.880   5.358  30.169  0.00  0.00    -0.259 N 
ATOM     18  H   UNK A   2       6.929   4.876  29.294  0.00  0.00    +0.190 HD
ATOM     19  O   UNK A   1       7.309   7.284  31.258  0.00  0.00    -0.394 OA
BRANCH  17  20
ATOM     20  C   UNK A   2       6.327   4.665  31.316  0.00  0.00    +0.216 C 
BRANCH  20  21
ATOM     21  C   UNK A   2       6.720   3.223  31.343  0.00  0.00    -0.005 A 
ATOM     22  C   UNK A   2       7.398   2.666  30.268  0.00  0.00    -0.000 A 
ATOM     23  C   UNK A   2       7.705   1.312  30.245  0.00  0.00    -0.008 A 
ATOM     24  C   UNK A   2       7.334   0.498  31.307  0.00  0.00    -0.013 A 
ATOM     25  C   UNK A   2       6.659   1.044  32.390  0.00  0.00    -0.008 A 
ATOM     26  C   UNK A   2       6.356   2.402  32.404  0.00  0.00    -0.000 A 
ENDBRANCH  20  21
BRANCH  20  27
ATOM     27  C   UNK A   2       4.843   4.937  31.555  0.00  0.00    +0.072 C 
ATOM     28  O   UNK A   2       4.019   4.653  30.659  0.00  0.00    -0.564 OA
ATOM     29  O   UNK A   2       4.525   5.443  32.647  0.00  0.00    -0.564 OA
ENDBRANCH  20  27
ENDBRANCH  17  20
ENDBRANCH   1  16
BRANCH   1  30
ATOM     30  C   UNK A   1       6.770   7.273  27.938  0.00  0.00    +0.121 C 
BRANCH  30  31
ATOM     31  S   UNK A   1       7.236   7.183  26.217  0.00  0.00    -0.142 S 
BRANCH  31  32
ATOM     32  C   UNK A   1       5.944   6.089  25.591  0.00  0.00    +0.135 C 
BRANCH  32  33
ATOM     33  C   UNK A   1       5.413   6.486  24.240  0.00  0.00    -0.033 A 
ATOM     34  C   UNK A   1       4.088   6.890  24.083  0.00  0.00    -0.004 A 
ATOM     35  C   UNK A   1       3.598   7.260  22.830  0.00  0.00    -0.009 A 
ATOM     36  C   UNK A   1       4.434   7.226  21.722  0.00  0.00    -0.013 A 
ATOM     37  C   UNK A   1       5.761   6.824  21.867  0.00  0.00    -0.009 A 
ATOM     38  C   UNK A   1       6.241   6.457  23.121  0.00  0.00    -0.004 A 
ENDBRANCH  32  33
ENDBRANCH  31  32
ENDBRANCH  30  31
ENDBRANCH   1  30
TORSDOF 14
ENDMDL
MODEL 9
REMARK VINA RESULT:      -6.9      2.212      3.195
REMARK  Name = 10gs_ligand
REMARK  14 active torsions:
REMARK  status: ('A' for Active; 'I' for Inactive)
REMARK    1  A    between atoms: N_1  and  CA_2
REMARK    2  A    between atoms: CA_2  and  C_3
REMARK    3  A    between atoms: CA_2  and  CB_5
REMARK    4  A    between atoms: CB_5  and  CG_6
REMARK    5  A    between atoms: CG_6  and  CD_7
REMARK    6  A    between atoms: N_10  and  CA_11
REMARK    7  A    between atoms: CA_11  and  CB_12
REMARK    8  A    between atoms: CA_11  and  C_21
REMARK    9  A    between atoms: CB_12  and  SG_13
REMARK   10  A    between atoms: SG_13  and  CD_14
REMARK   11  A    between atoms: CD_14  and  CE_15
REMARK   12  A    between atoms: N_23  and  CA_24
REMARK   13  A    between atoms: CA_24  and  CB_25
REMARK   14  A    between atoms: CA_24  and  C_31
REMARK                            x       y       z     vdW  Elec       q    Type
REMARK                         _______ _______ _______ _____ _____    ______ ____
ROOT
ATOM      1  C   UNK A   1      10.413   6.522  27.656  0.00  0.00    +0.221 C 
ENDROOT
BRANCH   1   3
ATOM      2  C   UNK A   1      12.124   7.332  26.105  0.00  0.00    +0.178 C 
ATOM      3  N   UNK A   1      11.649   7.228  27.342  0.00  0.00    -0.265 N 
ATOM      4  H   UNK A   1      12.161   7.651  28.089  0.00  0.00    +0.188 HD
ATOM      5  O   UNK A   1      11.539   6.893  25.115  0.00  0.00    -0.397 OA
BRANCH   2   6
ATOM      6  C   UNK A   1      13.427   8.080  25.974  0.00  0.00    +0.145 C 
BRANCH   6   7
ATOM      7  C   UNK A   1      13.485   8.987  24.760  0.00  0.00    +0.092 C 
BRANCH   7   8
ATOM      8  C   UNK A   1      14.761   9.829  24.711  0.00  0.00    +0.133 C 
BRANCH   8   9
ATOM      9  N   UNK A   1      14.637  10.891  23.676  0.00  0.00    +0.233 N 
ATOM     10  H   UNK A   1      15.323  11.610  23.848  0.00  0.00    +0.201 HD
ATOM     11  H   UNK A   1      14.791  10.491  22.764  0.00  0.00    +0.201 HD
ATOM     12  H   UNK A   1      13.713  11.292  23.715  0.00  0.00    +0.201 HD
ENDBRANCH   8   9
BRANCH   8  13
ATOM     13  C   UNK A   1      15.978   8.935  24.442  0.00  0.00    +0.085 C 
ATOM     14  O   UNK A   1      16.556   8.426  25.422  0.00  0.00    -0.564 OA
ATOM     15  O   UNK A   1      16.332   8.737  23.259  0.00  0.00    -0.564 OA
ENDBRANCH   8  13
ENDBRANCH   7   8
ENDBRANCH   6   7
ENDBRANCH   2   6
ENDBRANCH   1   3
BRANCH   1  16
ATOM     16  C   UNK A   1       9.784   7.071  28.921  0.00  0.00    +0.206 C 
ATOM     17  N   UNK A   2       8.472   6.905  29.017  0.00  0.00    -0.259 N 
ATOM     18  H   UNK A   2       7.987   6.470  28.259  0.00  0.00    +0.190 HD
ATOM     19  O   UNK A   1      10.471   7.593  29.798  0.00  0.00    -0.394 OA
BRANCH  17  20
ATOM     20  C   UNK A   2       7.712   7.326  30.179  0.00  0.00    +0.216 C 
BRANCH  20  21
ATOM     21  C   UNK A   2       6.594   6.385  30.490  0.00  0.00    -0.005 A 
ATOM     22  C   UNK A   2       5.444   6.390  29.713  0.00  0.00    -0.000 A 
ATOM     23  C   UNK A   2       4.367   5.573  30.031  0.00  0.00    -0.008 A 
ATOM     24  C   UNK A   2       4.433   4.738  31.139  0.00  0.00    -0.013 A 
ATOM     25  C   UNK A   2       5.579   4.721  31.921  0.00  0.00    -0.008 A 
ATOM     26  C   UNK A   2       6.653   5.543  31.594  0.00  0.00    -0.000 A 
ENDBRANCH  20  21
BRANCH  20  27
ATOM     27  C   UNK A   2       7.331   8.806  30.173  0.00  0.00    +0.072 C 
ATOM     28  O   UNK A   2       7.102   9.381  31.259  0.00  0.00    -0.564 OA
ATOM     29  O   UNK A   2       7.260   9.371  29.065  0.00  0.00    -0.564 OA
ENDBRANCH  20  27
ENDBRANCH  17  20
ENDBRANCH   1  16
BRANCH   1  30
ATOM     30  C   UNK A   1      10.701   5.040  27.898  0.00  0.00    +0.121 C 
BRANCH  30  31
ATOM     31  S   UNK A   1       9.905   3.901  26.776  0.00  0.00    -0.142 S 
BRANCH  31  32
ATOM     32  C   UNK A   1       8.173   4.309  27.081  0.00  0.00    +0.135 C 
BRANCH  32  33
ATOM     33  C   UNK A   1       7.501   3.402  28.077  0.00  0.00    -0.033 A 
ATOM     34  C   UNK A   1       8.191   2.931  29.192  0.00  0.00    -0.004 A 
ATOM     35  C   UNK A   1       7.567   2.091  30.116  0.00  0.00    -0.009 A 
ATOM     36  C   UNK A   1       6.243   1.717  29.926  0.00  0.00    -0.013 A 
ATOM     37  C   UNK A   1       5.543   2.183  28.814  0.00  0.00    -0.009 A 
ATOM     38  C   UNK A   1       6.174   3.019  27.899  0.00  0.00    -0.004 A 
ENDBRANCH  32  33
ENDBRANCH  31  32
ENDBRANCH  30  31
ENDBRANCH   1  30
TORSDOF 14
ENDMDL
MODEL 10
REMARK VINA RESULT:      -6.9      3.445      5.332
REMARK  Name = 10gs_ligand
REMARK  14 active torsions:
REMARK  status: ('A' for Active; 'I' for Inactive)
REMARK    1  A    between atoms: N_1  and  CA_2
REMARK    2  A    between atoms: CA_2  and  C_3
REMARK    3  A    between atoms: CA_2  and  CB_5
REMARK    4  A    between atoms: CB_5  and  CG_6
REMARK    5  A    between atoms: CG_6  and  CD_7
REMARK    6  A    between atoms: N_10  and  CA_11
REMARK    7  A    between atoms: CA_11  and  CB_12
REMARK    8  A    between atoms: CA_11  and  C_21
REMARK    9  A    between atoms: CB_12  and  SG_13
REMARK   10  A    between atoms: SG_13  and  CD_14
REMARK   11  A    between atoms: CD_14  and  CE_15
REMARK   12  A    between atoms: N_23  and  CA_24
REMARK   13  A    between atoms: CA_24  and  CB_25
REMARK   14  A    between atoms: CA_24  and  C_31
REMARK                            x       y       z     vdW  Elec       q    Type
REMARK                         _______ _______ _______ _____ _____    ______ ____
ROOT
ATOM      1  C   UNK A   1       8.054   7.443  28.863  0.00  0.00    +0.221 C 
ENDROOT
BRANCH   1   3
ATOM      2  C   UNK A   1      10.331   6.576  28.640  0.00  0.00    +0.178 C 
ATOM      3  N   UNK A   1       9.044   6.528  28.311  0.00  0.00    -0.265 N 
ATOM      4  H   UNK A   1       8.742   5.834  27.657  0.00  0.00    +0.188 HD
ATOM      5  O   UNK A   1      10.789   7.355  29.475  0.00  0.00    -0.397 OA
BRANCH   2   6
ATOM      6  C   UNK A   1      11.212   5.562  27.953  0.00  0.00    +0.145 C 
BRANCH   6   7
ATOM      7  C   UNK A   1      10.739   4.132  28.128  0.00  0.00    +0.092 C 
BRANCH   7   8
ATOM      8  C   UNK A   1      10.017   3.592  26.893  0.00  0.00    +0.133 C 
BRANCH   8   9
ATOM      9  N   UNK A   1       9.893   2.111  26.975  0.00  0.00    +0.233 N 
ATOM     10  H   UNK A   1      10.665   1.682  26.490  0.00  0.00    +0.201 HD
ATOM     11  H   UNK A   1       9.904   1.827  27.943  0.00  0.00    +0.201 HD
ATOM     12  H   UNK A   1       9.026   1.822  26.550  0.00  0.00    +0.201 HD
ENDBRANCH   8   9
BRANCH   8  13
ATOM     13  C   UNK A   1      10.755   4.015  25.617  0.00  0.00    +0.085 C 
ATOM     14  O   UNK A   1      10.192   4.829  24.859  0.00  0.00    -0.564 OA
ATOM     15  O   UNK A   1      11.892   3.545  25.395  0.00  0.00    -0.564 OA
ENDBRANCH   8  13
ENDBRANCH   7   8
ENDBRANCH   6   7
ENDBRANCH   2   6
ENDBRANCH   1   3
BRANCH   1  16
ATOM     16  C   UNK A   1       7.438   6.876  30.127  0.00  0.00    +0.206 C 
ATOM     17  N   UNK A   2       6.910   5.666  30.004  0.00  0.00    -0.259 N 
ATOM     18  H   UNK A   2       6.920   5.228  29.106  0.00  0.00    +0.190 HD
ATOM     19  O   UNK A   1       7.476   7.499  31.187  0.00  0.00    -0.394 OA
BRANCH  17  20
ATOM     20  C   UNK A   2       6.319   4.953  31.121  0.00  0.00    +0.216 C 
BRANCH  20  21
ATOM     21  C   UNK A   2       6.654   3.496  31.096  0.00  0.00    -0.005 A 
ATOM     22  C   UNK A   2       6.295   2.681  32.160  0.00  0.00    -0.000 A 
ATOM     23  C   UNK A   2       6.662   1.342  32.186  0.00  0.00    -0.008 A 
ATOM     24  C   UNK A   2       7.398   0.804  31.138  0.00  0.00    -0.013 A 
ATOM     25  C   UNK A   2       7.760   1.608  30.067  0.00  0.00    -0.008 A 
ATOM     26  C   UNK A   2       7.387   2.948  30.049  0.00  0.00    -0.000 A 
ENDBRANCH  20  21
BRANCH  20  27
ATOM     27  C   UNK A   2       4.845   5.274  31.358  0.00  0.00    +0.072 C 
ATOM     28  O   UNK A   2       4.505   5.823  32.428  0.00  0.00    -0.564 OA
ATOM     29  O   UNK A   2       4.042   4.961  30.459  0.00  0.00    -0.564 OA
ENDBRANCH  20  27
ENDBRANCH  17  20
ENDBRANCH   1  16
BRANCH   1  30
ATOM     30  C   UNK A   1       6.919   7.656  27.861  0.00  0.00    +0.121 C 
BRANCH  30  31
ATOM     31  S   UNK A   1       7.359   7.478  26.139  0.00  0.00    -0.142 S 
BRANCH  31  32
ATOM     32  C   UNK A   1       6.831   5.776  25.848  0.00  0.00    +0.135 C 
BRANCH  32  33
ATOM     33  C   UNK A   1       5.336   5.604  25.798  0.00  0.00    -0.033 A 
ATOM     34  C   UNK A   1       4.592   6.132  24.745  0.00  0.00    -0.004 A 
ATOM     35  C   UNK A   1       3.206   5.970  24.699  0.00  0.00    -0.009 A 
ATOM     36  C   UNK A   1       2.557   5.276  25.713  0.00  0.00    -0.013 A 
ATOM     37  C   UNK A   1       3.292   4.744  26.770  0.00  0.00    -0.009 A 
ATOM     38  C   UNK A   1       4.673   4.911  26.807  0.00  0.00    -0.004 A 
ENDBRANCH  32  33
ENDBRANCH  31  32
ENDBRANCH  30  31
ENDBRANCH   1  30
TORSDOF 14
ENDMDL
MODEL 11
REMARK VINA RESULT:      -6.9     10.533     14.160
REMARK  Name = 10gs_ligand
REMARK  14 active torsions:
REMARK  status: ('A' for Active; 'I' for Inactive)
REMARK    1  A    between atoms: N_1  and  CA_2
REMARK    2  A    between atoms: CA_2  and  C_3
REMARK    3  A    between atoms: CA_2  and  CB_5
REMARK    4  A    between atoms: CB_5  and  CG_6
REMARK    5  A    between atoms: CG_6  and  CD_7
REMARK    6  A    between atoms: N_10  and  CA_11
REMARK    7  A    between atoms: CA_11  and  CB_12
REMARK    8  A    between atoms: CA_11  and  C_21
REMARK    9  A    between atoms: CB_12  and  SG_13
REMARK   10  A    between atoms: SG_13  and  CD_14
REMARK   11  A    between atoms: CD_14  and  CE_15
REMARK   12  A    between atoms: N_23  and  CA_24
REMARK   13  A    between atoms: CA_24  and  CB_25
REMARK   14  A    between atoms: CA_24  and  C_31
REMARK                            x       y       z     vdW  Elec       q    Type
REMARK                         _______ _______ _______ _____ _____    ______ ____
ROOT
ATOM      1  C   UNK A   1       7.957  16.585  31.380  0.00  0.00    +0.221 C 
ENDROOT
BRANCH   1   3
ATOM      2  C   UNK A   1       9.752  18.050  32.167  0.00  0.00    +0.178 C 
ATOM      3  N   UNK A   1       8.676  17.852  31.411  0.00  0.00    -0.265 N 
ATOM      4  H   UNK A   1       8.347  18.604  30.841  0.00  0.00    +0.188 HD
ATOM      5  O   UNK A   1      10.265  17.172  32.859  0.00  0.00    -0.397 OA
BRANCH   2   6
ATOM      6  C   UNK A   1      10.353  19.431  32.086  0.00  0.00    +0.145 C 
BRANCH   6   7
ATOM      7  C   UNK A   1      10.806  19.973  33.428  0.00  0.00    +0.092 C 
BRANCH   7   8
ATOM      8  C   UNK A   1      12.322  19.894  33.617  0.00  0.00    +0.133 C 
BRANCH   8   9
ATOM      9  N   UNK A   1      12.683  18.664  34.373  0.00  0.00    +0.233 N 
ATOM     10  H   UNK A   1      12.539  18.821  35.358  0.00  0.00    +0.201 HD
ATOM     11  H   UNK A   1      12.103  17.899  34.066  0.00  0.00    +0.201 HD
ATOM     12  H   UNK A   1      13.651  18.439  34.206  0.00  0.00    +0.201 HD
ENDBRANCH   8   9
BRANCH   8  13
ATOM     13  C   UNK A   1      12.836  21.152  34.328  0.00  0.00    +0.085 C 
ATOM     14  O   UNK A   1      14.024  21.481  34.146  0.00  0.00    -0.564 OA
ATOM     15  O   UNK A   1      12.045  21.805  35.044  0.00  0.00    -0.564 OA
ENDBRANCH   8  13
ENDBRANCH   7   8
ENDBRANCH   6   7
ENDBRANCH   2   6
ENDBRANCH   1   3
BRANCH   1  16
ATOM     16  C   UNK A   1       8.380  15.753  30.185  0.00  0.00    +0.206 C 
ATOM     17  N   UNK A   2       8.855  16.441  29.157  0.00  0.00    -0.259 N 
ATOM     18  H   UNK A   2       8.874  17.439  29.215  0.00  0.00    +0.190 HD
ATOM     19  O   UNK A   1       8.315  14.524  30.212  0.00  0.00    -0.394 OA
BRANCH  17  20
ATOM     20  C   UNK A   2       9.348  15.805  27.949  0.00  0.00    +0.216 C 
BRANCH  20  21
ATOM     21  C   UNK A   2      10.465  16.578  27.325  0.00  0.00    -0.005 A 
ATOM     22  C   UNK A   2      10.888  17.771  27.893  0.00  0.00    -0.000 A 
ATOM     23  C   UNK A   2      11.874  18.538  27.286  0.00  0.00    -0.008 A 
ATOM     24  C   UNK A   2      12.449  18.112  26.095  0.00  0.00    -0.013 A 
ATOM     25  C   UNK A   2      12.037  16.919  25.519  0.00  0.00    -0.008 A 
ATOM     26  C   UNK A   2      11.048  16.157  26.136  0.00  0.00    -0.000 A 
ENDBRANCH  20  21
BRANCH  20  27
ATOM     27  C   UNK A   2       8.250  15.359  26.985  0.00  0.00    +0.072 C 
ATOM     28  O   UNK A   2       7.246  16.085  26.826  0.00  0.00    -0.564 OA
ATOM     29  O   UNK A   2       8.413  14.270  26.402  0.00  0.00    -0.564 OA
ENDBRANCH  20  27
ENDBRANCH  17  20
ENDBRANCH   1  16
BRANCH   1  30
ATOM     30  C   UNK A   1       6.455  16.837  31.248  0.00  0.00    +0.121 C 
BRANCH  30  31
ATOM     31  S   UNK A   1       5.490  16.566  32.726  0.00  0.00    -0.142 S 
BRANCH  31  32
ATOM     32  C   UNK A   1       6.810  16.333  33.934  0.00  0.00    +0.135 C 
BRANCH  32  33
ATOM     33  C   UNK A   1       6.325  15.883  35.287  0.00  0.00    -0.033 A 
ATOM     34  C   UNK A   1       7.201  15.789  36.365  0.00  0.00    -0.004 A 
ATOM     35  C   UNK A   1       6.749  15.374  37.619  0.00  0.00    -0.009 A 
ATOM     36  C   UNK A   1       5.411  15.048  37.798  0.00  0.00    -0.013 A 
ATOM     37  C   UNK A   1       4.525  15.138  36.726  0.00  0.00    -0.009 A 
ATOM     38  C   UNK A   1       4.986  15.554  35.480  0.00  0.00    -0.004 A 
ENDBRANCH  32  33
ENDBRANCH  31  32
ENDBRANCH  30  31
ENDBRANCH   1  30
TORSDOF 14
ENDMDL
MODEL 12
REMARK VINA RESULT:      -6.9      3.916      5.460
REMARK  Name = 10gs_ligand
REMARK  14 active torsions:
REMARK  status: ('A' for Active; 'I' for Inactive)
REMARK    1  A    between atoms: N_1  and  CA_2
REMARK    2  A    between atoms: CA_2  and  C_3
REMARK    3  A    between atoms: CA_2  and  CB_5
REMARK    4  A    between atoms: CB_5  and  CG_6
REMARK    5  A    between atoms: CG_6  and  CD_7
REMARK    6  A    between atoms: N_10  and  CA_11
REMARK    7  A    between atoms: CA_11  and  CB_12
REMARK    8  A    between atoms: CA_11  and  C_21
REMARK    9  A    between atoms: CB_12  and  SG_13
REMARK   10  A    between atoms: SG_13  and  CD_14
REMARK   11  A    between atoms: CD_14  and  CE_15
REMARK   12  A    between atoms: N_23  and  CA_24
REMARK   13  A    between atoms: CA_24  and  CB_25
REMARK   14  A    between atoms: CA_24  and  C_31
REMARK                            x       y       z     vdW  Elec       q    Type
REMARK                         _______ _______ _______ _____ _____    ______ ____
ROOT
ATOM      1  C   UNK A   1       6.949   5.978  28.515  0.00  0.00    +0.221 C 
ENDROOT
BRANCH   1   3
ATOM      2  C   UNK A   1       9.155   7.035  28.548  0.00  0.00    +0.178 C 
ATOM      3  N   UNK A   1       8.154   6.481  27.870  0.00  0.00    -0.265 N 
ATOM      4  H   UNK A   1       8.233   6.405  26.877  0.00  0.00    +0.188 HD
ATOM      5  O   UNK A   1       9.176   7.123  29.775  0.00  0.00    -0.397 OA
BRANCH   2   6
ATOM      6  C   UNK A   1      10.313   7.517  27.711  0.00  0.00    +0.145 C 
BRANCH   6   7
ATOM      7  C   UNK A   1      10.442   6.795  26.383  0.00  0.00    +0.092 C 
BRANCH   7   8
ATOM      8  C   UNK A   1      11.861   6.850  25.815  0.00  0.00    +0.133 C 
BRANCH   8   9
ATOM      9  N   UNK A   1      12.803   6.129  26.713  0.00  0.00    +0.233 N 
ATOM     10  H   UNK A   1      12.790   6.555  27.626  0.00  0.00    +0.201 HD
ATOM     11  H   UNK A   1      12.522   5.163  26.789  0.00  0.00    +0.201 HD
ATOM     12  H   UNK A   1      13.735   6.178  26.332  0.00  0.00    +0.201 HD
ENDBRANCH   8   9
BRANCH   8  13
ATOM     13  C   UNK A   1      12.297   8.306  25.611  0.00  0.00    +0.085 C 
ATOM     14  O   UNK A   1      13.244   8.734  26.298  0.00  0.00    -0.564 OA
ATOM     15  O   UNK A   1      11.702   8.999  24.756  0.00  0.00    -0.564 OA
ENDBRANCH   8  13
ENDBRANCH   7   8
ENDBRANCH   6   7
ENDBRANCH   2   6
ENDBRANCH   1   3
BRANCH   1  16
ATOM     16  C   UNK A   1       6.848   4.472  28.375  0.00  0.00    +0.206 C 
ATOM     17  N   UNK A   2       7.825   3.784  28.949  0.00  0.00    -0.259 N 
ATOM     18  H   UNK A   2       8.565   4.286  29.397  0.00  0.00    +0.190 HD
ATOM     19  O   UNK A   1       5.894   3.950  27.799  0.00  0.00    -0.394 OA
BRANCH  17  20
ATOM     20  C   UNK A   2       7.865   2.334  28.953  0.00  0.00    +0.216 C 
BRANCH  20  21
ATOM     21  C   UNK A   2       7.527   1.768  30.294  0.00  0.00    -0.005 A 
ATOM     22  C   UNK A   2       7.770   0.429  30.566  0.00  0.00    -0.000 A 
ATOM     23  C   UNK A   2       7.395  -0.131  31.780  0.00  0.00    -0.008 A 
ATOM     24  C   UNK A   2       6.771   0.653  32.741  0.00  0.00    -0.013 A 
ATOM     25  C   UNK A   2       6.526   1.995  32.484  0.00  0.00    -0.008 A 
ATOM     26  C   UNK A   2       6.906   2.546  31.264  0.00  0.00    -0.000 A 
ENDBRANCH  20  21
BRANCH  20  27
ATOM     27  C   UNK A   2       9.109   1.741  28.294  0.00  0.00    +0.072 C 
ATOM     28  O   UNK A   2       8.973   0.883  27.395  0.00  0.00    -0.564 OA
ATOM     29  O   UNK A   2      10.215   2.146  28.698  0.00  0.00    -0.564 OA
ENDBRANCH  20  27
ENDBRANCH  17  20
ENDBRANCH   1  16
BRANCH   1  30
ATOM     30  C   UNK A   1       5.709   6.579  27.853  0.00  0.00    +0.121 C 
BRANCH  30  31
ATOM     31  S   UNK A   1       5.964   7.307  26.242  0.00  0.00    -0.142 S 
BRANCH  31  32
ATOM     32  C   UNK A   1       5.112   6.100  25.205  0.00  0.00    +0.135 C 
BRANCH  32  33
ATOM     33  C   UNK A   1       4.890   6.564  23.790  0.00  0.00    -0.033 A 
ATOM     34  C   UNK A   1       3.646   7.042  23.384  0.00  0.00    -0.004 A 
ATOM     35  C   UNK A   1       3.441   7.474  22.072  0.00  0.00    -0.009 A 
ATOM     36  C   UNK A   1       4.485   7.426  21.157  0.00  0.00    -0.013 A 
ATOM     37  C   UNK A   1       5.733   6.950  21.553  0.00  0.00    -0.009 A 
ATOM     38  C   UNK A   1       5.928   6.522  22.863  0.00  0.00    -0.004 A 
ENDBRANCH  32  33
ENDBRANCH  31  32
ENDBRANCH  30  31
ENDBRANCH   1  30
TORSDOF 14
ENDMDL
MODEL 13
REMARK VINA RESULT:      -6.8      3.268      4.867
REMARK  Name = 10gs_ligand
REMARK  14 active torsions:
REMARK  status: ('A' for Active; 'I' for Inactive)
REMARK    1  A    between atoms: N_1  and  CA_2
REMARK    2  A    between atoms: CA_2  and  C_3
REMARK    3  A    between atoms: CA_2  and  CB_5
REMARK    4  A    between atoms: CB_5  and  CG_6
REMARK    5  A    between atoms: CG_6  and  CD_7
REMARK    6  A    between atoms: N_10  and  CA_11
REMARK    7  A    between atoms: CA_11  and  CB_12
REMARK    8  A    between atoms: CA_11  and  C_21
REMARK    9  A    between atoms: CB_12  and  SG_13
REMARK   10  A    between atoms: SG_13  and  CD_14
REMARK   11  A    between atoms: CD_14  and  CE_15
REMARK   12  A    between atoms: N_23  and  CA_24
REMARK   13  A    between atoms: CA_24  and  CB_25
REMARK   14  A    between atoms: CA_24  and  C_31
REMARK                            x       y       z     vdW  Elec       q    Type
REMARK                         _______ _______ _______ _____ _____    ______ ____
ROOT
ATOM      1  C   UNK A   1       8.072   7.591  28.842  0.00  0.00    +0.221 C 
ENDROOT
BRANCH   1   3
ATOM      2  C   UNK A   1      10.299   6.617  28.573  0.00  0.00    +0.178 C 
ATOM      3  N   UNK A   1       9.008   6.640  28.258  0.00  0.00    -0.265 N 
ATOM      4  H   UNK A   1       8.665   5.977  27.593  0.00  0.00    +0.188 HD
ATOM      5  O   UNK A   1      10.804   7.353  29.419  0.00  0.00    -0.397 OA
BRANCH   2   6
ATOM      6  C   UNK A   1      11.120   5.576  27.853  0.00  0.00    +0.145 C 
BRANCH   6   7
ATOM      7  C   UNK A   1      10.441   4.224  27.764  0.00  0.00    +0.092 C 
BRANCH   7   8
ATOM      8  C   UNK A   1       9.760   3.991  26.414  0.00  0.00    +0.133 C 
BRANCH   8   9
ATOM      9  N   UNK A   1       8.409   3.400  26.615  0.00  0.00    +0.233 N 
ATOM     10  H   UNK A   1       8.011   3.753  27.471  0.00  0.00    +0.201 HD
ATOM     11  H   UNK A   1       7.814   3.649  25.840  0.00  0.00    +0.201 HD
ATOM     12  H   UNK A   1       8.486   2.396  26.669  0.00  0.00    +0.201 HD
ENDBRANCH   8   9
BRANCH   8  13
ATOM     13  C   UNK A   1      10.630   3.092  25.527  0.00  0.00    +0.085 C 
ATOM     14  O   UNK A   1      10.111   2.064  25.050  0.00  0.00    -0.564 OA
ATOM     15  O   UNK A   1      11.813   3.431  25.302  0.00  0.00    -0.564 OA
ENDBRANCH   8  13
ENDBRANCH   7   8
ENDBRANCH   6   7
ENDBRANCH   2   6
ENDBRANCH   1   3
BRANCH   1  16
ATOM     16  C   UNK A   1       7.441   7.026  30.100  0.00  0.00    +0.206 C 
ATOM     17  N   UNK A   2       6.977   5.789  29.993  0.00  0.00    -0.259 N 
ATOM     18  H   UNK A   2       7.040   5.329  29.107  0.00  0.00    +0.190 HD
ATOM     19  O   UNK A   1       7.411   7.678  31.144  0.00  0.00    -0.394 OA
BRANCH  17  20
ATOM     20  C   UNK A   2       6.384   5.076  31.108  0.00  0.00    +0.216 C 
BRANCH  20  21
ATOM     21  C   UNK A   2       6.758   3.628  31.110  0.00  0.00    -0.005 A 
ATOM     22  C   UNK A   2       7.466   3.091  30.045  0.00  0.00    -0.000 A 
ATOM     23  C   UNK A   2       7.757   1.734  29.996  0.00  0.00    -0.008 A 
ATOM     24  C   UNK A   2       7.340   0.898  31.023  0.00  0.00    -0.013 A 
ATOM     25  C   UNK A   2       6.635   1.424  32.096  0.00  0.00    -0.008 A 
ATOM     26  C   UNK A   2       6.347   2.785  32.136  0.00  0.00    -0.000 A 
ENDBRANCH  20  21
BRANCH  20  27
ATOM     27  C   UNK A   2       4.897   5.361  31.312  0.00  0.00    +0.072 C 
ATOM     28  O   UNK A   2       4.101   5.149  30.373  0.00  0.00    -0.564 OA
ATOM     29  O   UNK A   2       4.550   5.805  32.423  0.00  0.00    -0.564 OA
ENDBRANCH  20  27
ENDBRANCH  17  20
ENDBRANCH   1  16
BRANCH   1  30
ATOM     30  C   UNK A   1       6.938   7.885  27.859  0.00  0.00    +0.121 C 
BRANCH  30  31
ATOM     31  S   UNK A   1       6.999   6.990  26.314  0.00  0.00    -0.142 S 
BRANCH  31  32
ATOM     32  C   UNK A   1       7.472   8.320  25.190  0.00  0.00    +0.135 C 
BRANCH  32  33
ATOM     33  C   UNK A   1       8.557   7.938  24.219  0.00  0.00    -0.033 A 
ATOM     34  C   UNK A   1       9.580   7.070  24.597  0.00  0.00    -0.004 A 
ATOM     35  C   UNK A   1      10.584   6.715  23.695  0.00  0.00    -0.009 A 
ATOM     36  C   UNK A   1      10.570   7.231  22.406  0.00  0.00    -0.013 A 
ATOM     37  C   UNK A   1       9.552   8.099  22.017  0.00  0.00    -0.009 A 
ATOM     38  C   UNK A   1       8.554   8.447  22.923  0.00  0.00    -0.004 A 
ENDBRANCH  32  33
ENDBRANCH  31  32
ENDBRANCH  30  31
ENDBRANCH   1  30
TORSDOF 14
ENDMDL
MODEL 14
REMARK VINA RESULT:      -6.8      3.666      6.710
REMARK  Name = 10gs_ligand
REMARK  14 active torsions:
REMARK  status: ('A' for Active; 'I' for Inactive)
REMARK    1  A    between atoms: N_1  and  CA_2
REMARK    2  A    between atoms: CA_2  and  C_3
REMARK    3  A    between atoms: CA_2  and  CB_5
REMARK    4  A    between atoms: CB_5  and  CG_6
REMARK    5  A    between atoms: CG_6  and  CD_7
REMARK    6  A    between atoms: N_10  and  CA_11
REMARK    7  A    between atoms: CA_11  and  CB_12
REMARK    8  A    between atoms: CA_11  and  C_21
REMARK    9  A    between atoms: CB_12  and  SG_13
REMARK   10  A    between atoms: SG_13  and  CD_14
REMARK   11  A    between atoms: CD_14  and  CE_15
REMARK   12  A    between atoms: N_23  and  CA_24
REMARK   13  A    between atoms: CA_24  and  CB_25
REMARK   14  A    between atoms: CA_24  and  C_31
REMARK                            x       y       z     vdW  Elec       q    Type
REMARK                         _______ _______ _______ _____ _____    ______ ____
ROOT
ATOM      1  C   UNK A   1       8.483   6.396  27.493  0.00  0.00    +0.221 C 
ENDROOT
BRANCH   1   3
ATOM      2  C   UNK A   1       6.500   7.734  28.006  0.00  0.00    +0.178 C 
ATOM      3  N   UNK A   1       7.542   7.017  28.416  0.00  0.00    -0.265 N 
ATOM      4  H   UNK A   1       7.685   6.899  29.398  0.00  0.00    +0.188 HD
ATOM      5  O   UNK A   1       6.208   7.890  26.821  0.00  0.00    -0.397 OA
BRANCH   2   6
ATOM      6  C   UNK A   1       5.646   8.318  29.104  0.00  0.00    +0.145 C 
BRANCH   6   7
ATOM      7  C   UNK A   1       6.154   8.004  30.497  0.00  0.00    +0.092 C 
BRANCH   7   8
ATOM      8  C   UNK A   1       5.157   7.188  31.321  0.00  0.00    +0.133 C 
BRANCH   8   9
ATOM      9  N   UNK A   1       4.442   6.217  30.449  0.00  0.00    +0.233 N 
ATOM     10  H   UNK A   1       4.491   6.527  29.491  0.00  0.00    +0.201 HD
ATOM     11  H   UNK A   1       4.874   5.310  30.532  0.00  0.00    +0.201 HD
ATOM     12  H   UNK A   1       3.477   6.156  30.734  0.00  0.00    +0.201 HD
ENDBRANCH   8   9
BRANCH   8  13
ATOM     13  C   UNK A   1       4.170   8.119  32.037  0.00  0.00    +0.085 C 
ATOM     14  O   UNK A   1       2.958   7.836  31.985  0.00  0.00    -0.564 OA
ATOM     15  O   UNK A   1       4.617   9.109  32.657  0.00  0.00    -0.564 OA
ENDBRANCH   8  13
ENDBRANCH   7   8
ENDBRANCH   6   7
ENDBRANCH   2   6
ENDBRANCH   1   3
BRANCH   1  16
ATOM     16  C   UNK A   1       8.233   4.904  27.390  0.00  0.00    +0.206 C 
ATOM     17  N   UNK A   2       8.397   4.224  28.516  0.00  0.00    -0.259 N 
ATOM     18  H   UNK A   2       8.698   4.715  29.333  0.00  0.00    +0.190 HD
ATOM     19  O   UNK A   1       7.866   4.393  26.332  0.00  0.00    -0.394 OA
BRANCH  17  20
ATOM     20  C   UNK A   2       8.157   2.796  28.611  0.00  0.00    +0.216 C 
BRANCH  20  21
ATOM     21  C   UNK A   2       7.612   2.407  29.947  0.00  0.00    -0.005 A 
ATOM     22  C   UNK A   2       7.664   1.084  30.361  0.00  0.00    -0.000 A 
ATOM     23  C   UNK A   2       7.098   0.693  31.568  0.00  0.00    -0.008 A 
ATOM     24  C   UNK A   2       6.470   1.632  32.376  0.00  0.00    -0.013 A 
ATOM     25  C   UNK A   2       6.415   2.959  31.974  0.00  0.00    -0.008 A 
ATOM     26  C   UNK A   2       6.986   3.341  30.764  0.00  0.00    -0.000 A 
ENDBRANCH  20  21
BRANCH  20  27
ATOM     27  C   UNK A   2       9.311   1.933  28.105  0.00  0.00    +0.072 C 
ATOM     28  O   UNK A   2       9.080   1.036  27.267  0.00  0.00    -0.564 OA
ATOM     29  O   UNK A   2      10.443   2.169  28.568  0.00  0.00    -0.564 OA
ENDBRANCH  20  27
ENDBRANCH  17  20
ENDBRANCH   1  16
BRANCH   1  30
ATOM     30  C   UNK A   1       9.914   6.582  27.998  0.00  0.00    +0.121 C 
BRANCH  30  31
ATOM     31  S   UNK A   1      11.053   7.331  26.843  0.00  0.00    -0.142 S 
BRANCH  31  32
ATOM     32  C   UNK A   1      12.062   5.897  26.412  0.00  0.00    +0.135 C 
BRANCH  32  33
ATOM     33  C   UNK A   1      11.416   4.981  25.407  0.00  0.00    -0.033 A 
ATOM     34  C   UNK A   1      11.648   3.607  25.441  0.00  0.00    -0.004 A 
ATOM     35  C   UNK A   1      11.048   2.759  24.510  0.00  0.00    -0.009 A 
ATOM     36  C   UNK A   1      10.210   3.284  23.534  0.00  0.00    -0.013 A 
ATOM     37  C   UNK A   1       9.971   4.656  23.491  0.00  0.00    -0.009 A 
ATOM     38  C   UNK A   1      10.574   5.494  24.424  0.00  0.00    -0.004 A 
ENDBRANCH  32  33
ENDBRANCH  31  32
ENDBRANCH  30  31
ENDBRANCH   1  30
TORSDOF 14
ENDMDL
MODEL 15
REMARK VINA RESULT:      -6.8      3.654      5.746
REMARK  Name = 10gs_ligand
REMARK  14 active torsions:
REMARK  status: ('A' for Active; 'I' for Inactive)
REMARK    1  A    between atoms: N_1  and  CA_2
REMARK    2  A    between atoms: CA_2  and  C_3
REMARK    3  A    between atoms: CA_2  and  CB_5
REMARK    4  A    between atoms: CB_5  and  CG_6
REMARK    5  A    between atoms: CG_6  and  CD_7
REMARK    6  A    between atoms: N_10  and  CA_11
REMARK    7  A    between atoms: CA_11  and  CB_12
REMARK    8  A    between atoms: CA_11  and  C_21
REMARK    9  A    between atoms: CB_12  and  SG_13
REMARK   10  A    between atoms: SG_13  and  CD_14
REMARK   11  A    between atoms: CD_14  and  CE_15
REMARK   12  A    between atoms: N_23  and  CA_24
REMARK   13  A    between atoms: CA_24  and  CB_25
REMARK   14  A    between atoms: CA_24  and  C_31
REMARK                            x       y       z     vdW  Elec       q    Type
REMARK                         _______ _______ _______ _____ _____    ______ ____
ROOT
ATOM      1  C   UNK A   1       7.664   6.863  28.957  0.00  0.00    +0.221 C 
ENDROOT
BRANCH   1   3
ATOM      2  C   UNK A   1       9.931   6.150  28.376  0.00  0.00    +0.178 C 
ATOM      3  N   UNK A   1       8.617   5.946  28.348  0.00  0.00    -0.265 N 
ATOM      4  H   UNK A   1       8.269   5.128  27.889  0.00  0.00    +0.188 HD
ATOM      5  O   UNK A   1      10.458   7.094  28.961  0.00  0.00    -0.397 OA
BRANCH   2   6
ATOM      6  C   UNK A   1      10.761   5.104  27.674  0.00  0.00    +0.145 C 
BRANCH   6   7
ATOM      7  C   UNK A   1      10.365   3.683  28.021  0.00  0.00    +0.092 C 
BRANCH   7   8
ATOM      8  C   UNK A   1       9.561   3.004  26.911  0.00  0.00    +0.133 C 
BRANCH   8   9
ATOM      9  N   UNK A   1       9.359   1.564  27.227  0.00  0.00    +0.233 N 
ATOM     10  H   UNK A   1       8.446   1.434  27.634  0.00  0.00    +0.201 HD
ATOM     11  H   UNK A   1       9.431   1.021  26.381  0.00  0.00    +0.201 HD
ATOM     12  H   UNK A   1      10.065   1.262  27.881  0.00  0.00    +0.201 HD
ENDBRANCH   8   9
BRANCH   8  13
ATOM     13  C   UNK A   1      10.266   3.180  25.560  0.00  0.00    +0.085 C 
ATOM     14  O   UNK A   1      11.363   2.612  25.395  0.00  0.00    -0.564 OA
ATOM     15  O   UNK A   1       9.710   3.867  24.675  0.00  0.00    -0.564 OA
ENDBRANCH   8  13
ENDBRANCH   7   8
ENDBRANCH   6   7
ENDBRANCH   2   6
ENDBRANCH   1   3
BRANCH   1  16
ATOM     16  C   UNK A   1       7.173   6.327  30.288  0.00  0.00    +0.206 C 
ATOM     17  N   UNK A   2       6.760   5.068  30.272  0.00  0.00    -0.259 N 
ATOM     18  H   UNK A   2       6.766   4.572  29.404  0.00  0.00    +0.190 HD
ATOM     19  O   UNK A   1       7.204   7.022  31.303  0.00  0.00    -0.394 OA
BRANCH  17  20
ATOM     20  C   UNK A   2       6.301   4.379  31.464  0.00  0.00    +0.216 C 
BRANCH  20  21
ATOM     21  C   UNK A   2       6.639   2.923  31.435  0.00  0.00    -0.005 A 
ATOM     22  C   UNK A   2       6.273   2.103  32.493  0.00  0.00    -0.000 A 
ATOM     23  C   UNK A   2       6.642   0.764  32.517  0.00  0.00    -0.008 A 
ATOM     24  C   UNK A   2       7.387   0.232  31.472  0.00  0.00    -0.013 A 
ATOM     25  C   UNK A   2       7.756   1.041  30.407  0.00  0.00    -0.008 A 
ATOM     26  C   UNK A   2       7.381   2.381  30.392  0.00  0.00    -0.000 A 
ENDBRANCH  20  21
BRANCH  20  27
ATOM     27  C   UNK A   2       4.860   4.702  31.856  0.00  0.00    +0.072 C 
ATOM     28  O   UNK A   2       3.936   4.434  31.058  0.00  0.00    -0.564 OA
ATOM     29  O   UNK A   2       4.678   5.232  32.968  0.00  0.00    -0.564 OA
ENDBRANCH  20  27
ENDBRANCH  17  20
ENDBRANCH   1  16
BRANCH   1  30
ATOM     30  C   UNK A   1       6.441   7.027  28.055  0.00  0.00    +0.121 C 
BRANCH  30  31
ATOM     31  S   UNK A   1       6.248   5.794  26.777  0.00  0.00    -0.142 S 
BRANCH  31  32
ATOM     32  C   UNK A   1       4.455   5.589  26.796  0.00  0.00    +0.135 C 
BRANCH  32  33
ATOM     33  C   UNK A   1       4.004   4.222  27.238  0.00  0.00    -0.033 A 
ATOM     34  C   UNK A   1       4.875   3.366  27.909  0.00  0.00    -0.004 A 
ATOM     35  C   UNK A   1       4.456   2.100  28.320  0.00  0.00    -0.009 A 
ATOM     36  C   UNK A   1       3.157   1.683  28.060  0.00  0.00    -0.013 A 
ATOM     37  C   UNK A   1       2.278   2.531  27.390  0.00  0.00    -0.009 A 
ATOM     38  C   UNK A   1       2.705   3.792  26.983  0.00  0.00    -0.004 A 
ENDBRANCH  32  33
ENDBRANCH  31  32
ENDBRANCH  30  31
ENDBRANCH   1  30
TORSDOF 14
ENDMDL
MODEL 16
REMARK VINA RESULT:      -6.7      4.118      5.636
REMARK  Name = 10gs_ligand
REMARK  14 active torsions:
REMARK  status: ('A' for Active; 'I' for Inactive)
REMARK    1  A    between atoms: N_1  and  CA_2
REMARK    2  A    between atoms: CA_2  and  C_3
REMARK    3  A    between atoms: CA_2  and  CB_5
REMARK    4  A    between atoms: CB_5  and  CG_6
REMARK    5  A    between atoms: CG_6  and  CD_7
REMARK    6  A    between atoms: N_10  and  CA_11
REMARK    7  A    between atoms: CA_11  and  CB_12
REMARK    8  A    between atoms: CA_11  and  C_21
REMARK    9  A    between atoms: CB_12  and  SG_13
REMARK   10  A    between atoms: SG_13  and  CD_14
REMARK   11  A    between atoms: CD_14  and  CE_15
REMARK   12  A    between atoms: N_23  and  CA_24
REMARK   13  A    between atoms: CA_24  and  CB_25
REMARK   14  A    between atoms: CA_24  and  C_31
REMARK                            x       y       z     vdW  Elec       q    Type
REMARK                         _______ _______ _______ _____ _____    ______ ____
ROOT
ATOM      1  C   UNK A   1       8.821   7.049  25.745  0.00  0.00    +0.221 C 
ENDROOT
BRANCH   1   3
ATOM      2  C   UNK A   1      10.604   6.057  24.394  0.00  0.00    +0.178 C 
ATOM      3  N   UNK A   1       9.465   5.931  25.068  0.00  0.00    -0.265 N 
ATOM      4  H   UNK A   1       9.031   5.031  25.112  0.00  0.00    +0.188 HD
ATOM      5  O   UNK A   1      11.240   7.108  24.329  0.00  0.00    -0.397 OA
BRANCH   2   6
ATOM      6  C   UNK A   1      11.110   4.796  23.740  0.00  0.00    +0.145 C 
BRANCH   6   7
ATOM      7  C   UNK A   1      10.356   3.550  24.162  0.00  0.00    +0.092 C 
BRANCH   7   8
ATOM      8  C   UNK A   1      11.271   2.338  24.345  0.00  0.00    +0.133 C 
BRANCH   8   9
ATOM      9  N   UNK A   1      11.692   1.807  23.021  0.00  0.00    +0.233 N 
ATOM     10  H   UNK A   1      12.648   1.492  23.074  0.00  0.00    +0.201 HD
ATOM     11  H   UNK A   1      11.098   1.034  22.764  0.00  0.00    +0.201 HD
ATOM     12  H   UNK A   1      11.616   2.535  22.327  0.00  0.00    +0.201 HD
ENDBRANCH   8   9
BRANCH   8  13
ATOM     13  C   UNK A   1      10.564   1.258  25.174  0.00  0.00    +0.085 C 
ATOM     14  O   UNK A   1      10.201   0.218  24.591  0.00  0.00    -0.564 OA
ATOM     15  O   UNK A   1      10.396   1.452  26.398  0.00  0.00    -0.564 OA
ENDBRANCH   8  13
ENDBRANCH   7   8
ENDBRANCH   6   7
ENDBRANCH   2   6
ENDBRANCH   1   3
BRANCH   1  16
ATOM     16  C   UNK A   1       8.952   6.916  27.250  0.00  0.00    +0.206 C 
ATOM     17  N   UNK A   2       7.989   6.224  27.842  0.00  0.00    -0.259 N 
ATOM     18  H   UNK A   2       7.240   5.869  27.282  0.00  0.00    +0.190 HD
ATOM     19  O   UNK A   1       9.915   7.394  27.849  0.00  0.00    -0.394 OA
BRANCH  17  20
ATOM     20  C   UNK A   2       7.978   5.959  29.268  0.00  0.00    +0.216 C 
BRANCH  20  21
ATOM     21  C   UNK A   2       7.823   4.502  29.567  0.00  0.00    -0.005 A 
ATOM     22  C   UNK A   2       8.420   3.556  28.746  0.00  0.00    -0.000 A 
ATOM     23  C   UNK A   2       8.226   2.199  28.966  0.00  0.00    -0.008 A 
ATOM     24  C   UNK A   2       7.426   1.774  30.019  0.00  0.00    -0.013 A 
ATOM     25  C   UNK A   2       6.826   2.711  30.849  0.00  0.00    -0.008 A 
ATOM     26  C   UNK A   2       7.027   4.069  30.621  0.00  0.00    -0.000 A 
ENDBRANCH  20  21
BRANCH  20  27
ATOM     27  C   UNK A   2       7.064   6.885  30.069  0.00  0.00    +0.072 C 
ATOM     28  O   UNK A   2       7.488   7.393  31.129  0.00  0.00    -0.564 OA
ATOM     29  O   UNK A   2       5.920   7.084  29.618  0.00  0.00    -0.564 OA
ENDBRANCH  20  27
ENDBRANCH  17  20
ENDBRANCH   1  16
BRANCH   1  30
ATOM     30  C   UNK A   1       7.328   7.072  25.420  0.00  0.00    +0.121 C 
BRANCH  30  31
ATOM     31  S   UNK A   1       6.757   5.800  24.303  0.00  0.00    -0.142 S 
BRANCH  31  32
ATOM     32  C   UNK A   1       5.485   6.711  23.403  0.00  0.00    +0.135 C 
BRANCH  32  33
ATOM     33  C   UNK A   1       5.929   7.199  22.049  0.00  0.00    -0.033 A 
ATOM     34  C   UNK A   1       5.226   6.850  20.898  0.00  0.00    -0.004 A 
ATOM     35  C   UNK A   1       5.638   7.303  19.645  0.00  0.00    -0.009 A 
ATOM     36  C   UNK A   1       6.763   8.111  19.537  0.00  0.00    -0.013 A 
ATOM     37  C   UNK A   1       7.474   8.467  20.681  0.00  0.00    -0.009 A 
ATOM     38  C   UNK A   1       7.055   8.009  21.927  0.00  0.00    -0.004 A 
ENDBRANCH  32  33
ENDBRANCH  31  32
ENDBRANCH  30  31
ENDBRANCH   1  30
TORSDOF 14
ENDMDL
