MODEL 1
REMARK VINA RESULT:      -6.0      0.000      0.000
REMARK  10 active torsions:
REMARK  status: ('A' for Active; 'I' for Inactive)
REMARK    1  A    between atoms: CA1_1  and  CB1_4 
REMARK    2  A    between atoms: CA1_1  and  C1_10 
REMARK    3  A    between atoms: CA1_1  and  N1_11 
REMARK    4  A    between atoms: CA2_2  and  CB2_5 
REMARK    5  A    between atoms: CA2_2  and  C2_15 
REMARK    6  A    between atoms: CA2_2  and  N2_16 
REMARK    7  A    between atoms: CA3_3  and  C3_19 
REMARK    8  A    between atoms: CA3_3  and  N3_20 
REMARK    9  A    between atoms: CB1_4  and  CG1_6 
REMARK   10  A    between atoms: CG1_6  and  CD1_8 
REMARK       I    between atoms: CD1_8  and  N2_16 
REMARK       I    between atoms: C2_15  and  N3_20 
ROOT
HETATM    1  CD1 GSH A 210      10.291  18.302  29.187  1.00 75.17     0.218 C 
HETATM    2  OE1 GSH A 210       9.183  18.318  28.641  1.00 75.35    -0.274 OA
HETATM    3  N2  GSH A 210      10.461  18.327  30.506  1.00 75.35    -0.347 N 
ATOM      4  H2  GSH A 210      11.412  18.323  30.874  1.00  0.00     0.163 HD
ENDROOT
BRANCH   3   5
HETATM    5  CA2 GSH A 210       9.351  18.360  31.446  1.00 75.19     0.186 C 
BRANCH   5   6
HETATM    6  CB2 GSH A 210       8.921  16.932  31.805  1.00 75.74     0.120 C 
HETATM    7  SG2 GSH A 210       7.304  16.415  31.147  1.00 76.23    -0.095 SA
ENDBRANCH   5   6
BRANCH   5   8
HETATM    8  C2  GSH A 210       9.808  19.090  32.709  1.00 74.65     0.241 C 
HETATM    9  O2  GSH A 210       9.394  18.745  33.820  1.00 73.83    -0.271 OA
HETATM   10  N3  GSH A 210      10.658  20.094  32.533  1.00 74.50    -0.349 N 
ATOM     11  H3  GSH A 210      10.968  20.334  31.591  1.00  0.00     0.163 HD
BRANCH  10  12
HETATM   12  CA3 GSH A 210      11.152  20.854  33.665  1.00 74.66     0.235 C 
BRANCH  12  13
HETATM   13  C3  GSH A 210      12.584  20.495  34.005  1.00 74.96     0.191 C 
HETATM   14  O31 GSH A 210      12.843  19.313  34.320  1.00 74.82    -0.647 OA
HETATM   15  O32 GSH A 210      13.454  21.390  33.936  1.00 75.16    -0.647 OA
ENDBRANCH  12  13
ENDBRANCH  10  12
ENDBRANCH   5   8
ENDBRANCH   3   5
BRANCH   1  16
HETATM   16  CG1 GSH A 210      11.560  18.264  28.377  1.00 74.50     0.105 C 
BRANCH  16  17
HETATM   17  CB1 GSH A 210      11.518  17.245  27.268  1.00 74.00     0.053 C 
BRANCH  17  18
HETATM   18  CA1 GSH A 210      12.237  17.699  26.002  1.00 73.72     0.283 C 
BRANCH  18  19
HETATM   19  C1  GSH A 210      11.624  17.022  24.772  1.00 73.51     0.204 C 
HETATM   20  O11 GSH A 210      11.074  15.911  24.945  1.00 73.55    -0.646 OA
HETATM   21  O12 GSH A 210      11.664  17.609  23.665  1.00 72.23    -0.646 OA
ENDBRANCH  18  19
BRANCH  18  22
HETATM   22  N1  GSH A 210      12.107  19.173  25.845  1.00 73.31    -0.065 N 
ATOM     23  H13 GSH A 210      11.327  19.547  26.385  1.00  0.00     0.275 HD
ATOM     24  H12 GSH A 210      12.863  19.675  26.309  1.00  0.00     0.275 HD
ATOM     25  H11 GSH A 210      12.039  19.412  24.856  1.00  0.00     0.275 HD
ENDBRANCH  18  22
ENDBRANCH  17  18
ENDBRANCH  16  17
ENDBRANCH   1  16
TORSDOF 10
ENDMDL
MODEL 2
REMARK VINA RESULT:      -5.8      1.926      7.628
REMARK  10 active torsions:
REMARK  status: ('A' for Active; 'I' for Inactive)
REMARK    1  A    between atoms: CA1_1  and  CB1_4 
REMARK    2  A    between atoms: CA1_1  and  C1_10 
REMARK    3  A    between atoms: CA1_1  and  N1_11 
REMARK    4  A    between atoms: CA2_2  and  CB2_5 
REMARK    5  A    between atoms: CA2_2  and  C2_15 
REMARK    6  A    between atoms: CA2_2  and  N2_16 
REMARK    7  A    between atoms: CA3_3  and  C3_19 
REMARK    8  A    between atoms: CA3_3  and  N3_20 
REMARK    9  A    between atoms: CB1_4  and  CG1_6 
REMARK   10  A    between atoms: CG1_6  and  CD1_8 
REMARK       I    between atoms: CD1_8  and  N2_16 
REMARK       I    between atoms: C2_15  and  N3_20 
ROOT
HETATM    1  CD1 GSH A 210      10.736  18.643  32.048  1.00 75.17     0.218 C 
HETATM    2  OE1 GSH A 210      11.050  17.524  32.465  1.00 75.35    -0.274 OA
HETATM    3  N2  GSH A 210      10.097  18.847  30.900  1.00 75.35    -0.347 N 
ATOM      4  H2  GSH A 210       9.885  19.805  30.624  1.00  0.00     0.163 HD
ENDROOT
BRANCH   3   5
HETATM    5  CA2 GSH A 210       9.685  17.763  30.020  1.00 75.19     0.186 C 
BRANCH   5   6
HETATM    6  CB2 GSH A 210       8.170  17.822  29.783  1.00 75.74     0.120 C 
HETATM    7  SG2 GSH A 210       7.372  16.225  29.424  1.00 76.23    -0.095 SA
ENDBRANCH   5   6
BRANCH   5   8
HETATM    8  C2  GSH A 210      10.418  17.915  28.688  1.00 74.65     0.241 C 
HETATM    9  O2  GSH A 210      10.851  19.015  28.329  1.00 73.83    -0.271 OA
HETATM   10  N3  GSH A 210      10.553  16.812  27.961  1.00 74.50    -0.349 N 
ATOM     11  H3  GSH A 210      10.176  15.931  28.308  1.00  0.00     0.163 HD
BRANCH  10  12
HETATM   12  CA3 GSH A 210      11.229  16.847  26.680  1.00 74.66     0.235 C 
BRANCH  12  13
HETATM   13  C3  GSH A 210      11.276  15.480  26.028  1.00 74.96     0.191 C 
HETATM   14  O31 GSH A 210      11.620  14.500  26.724  1.00 74.82    -0.647 OA
HETATM   15  O32 GSH A 210      10.948  15.383  24.826  1.00 75.16    -0.647 OA
ENDBRANCH  12  13
ENDBRANCH  10  12
ENDBRANCH   5   8
ENDBRANCH   3   5
BRANCH   1  16
HETATM   16  CG1 GSH A 210      11.075  19.889  32.823  1.00 74.50     0.105 C 
BRANCH  16  17
HETATM   17  CB1 GSH A 210      12.189  19.678  33.815  1.00 74.00     0.053 C 
BRANCH  17  18
HETATM   18  CA1 GSH A 210      13.089  20.898  33.983  1.00 73.72     0.283 C 
BRANCH  18  19
HETATM   19  C1  GSH A 210      12.782  21.605  35.306  1.00 73.51     0.204 C 
HETATM   20  O11 GSH A 210      13.744  21.821  36.077  1.00 73.55    -0.646 OA
HETATM   21  O12 GSH A 210      11.606  21.966  35.550  1.00 72.23    -0.646 OA
ENDBRANCH  18  19
BRANCH  18  22
HETATM   22  N1  GSH A 210      14.516  20.478  33.991  1.00 73.31    -0.065 N 
ATOM     23  H13 GSH A 210      15.148  21.266  33.848  1.00  0.00     0.275 HD
ATOM     24  H12 GSH A 210      14.830  20.204  34.923  1.00  0.00     0.275 HD
ATOM     25  H11 GSH A 210      14.665  19.738  33.305  1.00  0.00     0.275 HD
ENDBRANCH  18  22
ENDBRANCH  17  18
ENDBRANCH  16  17
ENDBRANCH   1  16
TORSDOF 10
ENDMDL
MODEL 3
REMARK VINA RESULT:      -5.6      1.986      7.638
REMARK  10 active torsions:
REMARK  status: ('A' for Active; 'I' for Inactive)
REMARK    1  A    between atoms: CA1_1  and  CB1_4 
REMARK    2  A    between atoms: CA1_1  and  C1_10 
REMARK    3  A    between atoms: CA1_1  and  N1_11 
REMARK    4  A    between atoms: CA2_2  and  CB2_5 
REMARK    5  A    between atoms: CA2_2  and  C2_15 
REMARK    6  A    between atoms: CA2_2  and  N2_16 
REMARK    7  A    between atoms: CA3_3  and  C3_19 
REMARK    8  A    between atoms: CA3_3  and  N3_20 
REMARK    9  A    between atoms: CB1_4  and  CG1_6 
REMARK   10  A    between atoms: CG1_6  and  CD1_8 
REMARK       I    between atoms: CD1_8  and  N2_16 
REMARK       I    between atoms: C2_15  and  N3_20 
ROOT
HETATM    1  CD1 GSH A 210      11.112  18.852  32.667  1.00 75.17     0.218 C 
HETATM    2  OE1 GSH A 210      11.602  17.779  33.034  1.00 75.35    -0.274 OA
HETATM    3  N2  GSH A 210      10.221  18.957  31.686  1.00 75.35    -0.347 N 
ATOM      4  H2  GSH A 210       9.875  19.883  31.438  1.00  0.00     0.163 HD
ENDROOT
BRANCH   3   5
HETATM    5  CA2 GSH A 210       9.716  17.807  30.949  1.00 75.19     0.186 C 
BRANCH   5   6
HETATM    6  CB2 GSH A 210       8.224  17.602  31.248  1.00 75.74     0.120 C 
HETATM    7  SG2 GSH A 210       7.366  19.042  31.960  1.00 76.23    -0.095 SA
ENDBRANCH   5   6
BRANCH   5   8
HETATM    8  C2  GSH A 210       9.908  18.066  29.455  1.00 74.65     0.241 C 
HETATM    9  O2  GSH A 210       8.961  18.435  28.753  1.00 73.83    -0.271 OA
HETATM   10  N3  GSH A 210      11.131  17.872  28.977  1.00 74.50    -0.349 N 
ATOM     11  H3  GSH A 210      11.876  17.569  29.605  1.00  0.00     0.163 HD
BRANCH  10  12
HETATM   12  CA3 GSH A 210      11.420  18.087  27.573  1.00 74.66     0.235 C 
BRANCH  12  13
HETATM   13  C3  GSH A 210      11.479  16.783  26.803  1.00 74.96     0.191 C 
HETATM   14  O31 GSH A 210      12.485  16.554  26.097  1.00 74.82    -0.647 OA
HETATM   15  O32 GSH A 210      10.530  15.979  26.922  1.00 75.16    -0.647 OA
ENDBRANCH  12  13
ENDBRANCH  10  12
ENDBRANCH   5   8
ENDBRANCH   3   5
BRANCH   1  16
HETATM   16  CG1 GSH A 210      11.509  20.153  33.313  1.00 74.50     0.105 C 
BRANCH  16  17
HETATM   17  CB1 GSH A 210      11.864  20.000  34.769  1.00 74.00     0.053 C 
BRANCH  17  18
HETATM   18  CA1 GSH A 210      13.364  20.073  35.038  1.00 73.72     0.283 C 
BRANCH  18  19
HETATM   19  C1  GSH A 210      13.628  20.705  36.407  1.00 73.51     0.204 C 
HETATM   20  O11 GSH A 210      12.991  20.246  37.382  1.00 73.55    -0.646 OA
HETATM   21  O12 GSH A 210      14.479  21.620  36.507  1.00 72.23    -0.646 OA
ENDBRANCH  18  19
BRANCH  18  22
HETATM   22  N1  GSH A 210      13.948  18.705  35.028  1.00 73.31    -0.065 N 
ATOM     23  H13 GSH A 210      13.587  18.140  34.260  1.00  0.00     0.275 HD
ATOM     24  H12 GSH A 210      14.932  18.710  34.758  1.00  0.00     0.275 HD
ATOM     25  H11 GSH A 210      13.803  18.258  35.933  1.00  0.00     0.275 HD
ENDBRANCH  18  22
ENDBRANCH  17  18
ENDBRANCH  16  17
ENDBRANCH   1  16
TORSDOF 10
ENDMDL
MODEL 4
REMARK VINA RESULT:      -5.6     15.127     16.914
REMARK  10 active torsions:
REMARK  status: ('A' for Active; 'I' for Inactive)
REMARK    1  A    between atoms: CA1_1  and  CB1_4 
REMARK    2  A    between atoms: CA1_1  and  C1_10 
REMARK    3  A    between atoms: CA1_1  and  N1_11 
REMARK    4  A    between atoms: CA2_2  and  CB2_5 
REMARK    5  A    between atoms: CA2_2  and  C2_15 
REMARK    6  A    between atoms: CA2_2  and  N2_16 
REMARK    7  A    between atoms: CA3_3  and  C3_19 
REMARK    8  A    between atoms: CA3_3  and  N3_20 
REMARK    9  A    between atoms: CB1_4  and  CG1_6 
REMARK   10  A    between atoms: CG1_6  and  CD1_8 
REMARK       I    between atoms: CD1_8  and  N2_16 
REMARK       I    between atoms: C2_15  and  N3_20 
ROOT
HETATM    1  CD1 GSH A 210       9.890   4.297  25.496  1.00 75.17     0.218 C 
HETATM    2  OE1 GSH A 210      10.191   5.350  26.067  1.00 75.35    -0.274 OA
HETATM    3  N2  GSH A 210       9.134   3.351  26.047  1.00 75.35    -0.347 N 
ATOM      4  H2  GSH A 210       8.944   2.506  25.511  1.00  0.00     0.163 HD
ENDROOT
BRANCH   3   5
HETATM    5  CA2 GSH A 210       8.566   3.471  27.382  1.00 75.19     0.186 C 
BRANCH   5   6
HETATM    6  CB2 GSH A 210       7.115   3.963  27.296  1.00 75.74     0.120 C 
HETATM    7  SG2 GSH A 210       6.780   5.552  28.119  1.00 76.23    -0.095 SA
ENDBRANCH   5   6
BRANCH   5   8
HETATM    8  C2  GSH A 210       8.602   2.096  28.048  1.00 74.65     0.241 C 
HETATM    9  O2  GSH A 210       9.020   1.109  27.435  1.00 73.83    -0.271 OA
HETATM   10  N3  GSH A 210       8.163   2.037  29.300  1.00 74.50    -0.349 N 
ATOM     11  H3  GSH A 210       7.830   2.885  29.758  1.00  0.00     0.163 HD
BRANCH  10  12
HETATM   12  CA3 GSH A 210       8.150   0.781  30.023  1.00 74.66     0.235 C 
BRANCH  12  13
HETATM   13  C3  GSH A 210       7.263   0.843  31.249  1.00 74.96     0.191 C 
HETATM   14  O31 GSH A 210       6.943  -0.229  31.808  1.00 74.82    -0.647 OA
HETATM   15  O32 GSH A 210       6.904   1.965  31.667  1.00 75.16    -0.647 OA
ENDBRANCH  12  13
ENDBRANCH  10  12
ENDBRANCH   5   8
ENDBRANCH   3   5
BRANCH   1  16
HETATM   16  CG1 GSH A 210      10.382   3.994  24.105  1.00 74.50     0.105 C 
BRANCH  16  17
HETATM   17  CB1 GSH A 210      11.284   2.788  24.052  1.00 74.00     0.053 C 
BRANCH  17  18
HETATM   18  CA1 GSH A 210      10.779   1.695  23.116  1.00 73.72     0.283 C 
BRANCH  18  19
HETATM   19  C1  GSH A 210      11.898   1.243  22.174  1.00 73.51     0.204 C 
HETATM   20  O11 GSH A 210      11.584   0.466  21.244  1.00 73.55    -0.646 OA
HETATM   21  O12 GSH A 210      13.059   1.685  22.343  1.00 72.23    -0.646 OA
ENDBRANCH  18  19
BRANCH  18  22
HETATM   22  N1  GSH A 210      10.323   0.520  23.908  1.00 73.31    -0.065 N 
ATOM     23  H13 GSH A 210       9.637   0.780  24.616  1.00  0.00     0.275 HD
ATOM     24  H12 GSH A 210       9.738  -0.109  23.358  1.00  0.00     0.275 HD
ATOM     25  H11 GSH A 210      11.128   0.041  24.312  1.00  0.00     0.275 HD
ENDBRANCH  18  22
ENDBRANCH  17  18
ENDBRANCH  16  17
ENDBRANCH   1  16
TORSDOF 10
ENDMDL
MODEL 5
REMARK VINA RESULT:      -5.3     10.335     12.315
REMARK  10 active torsions:
REMARK  status: ('A' for Active; 'I' for Inactive)
REMARK    1  A    between atoms: CA1_1  and  CB1_4 
REMARK    2  A    between atoms: CA1_1  and  C1_10 
REMARK    3  A    between atoms: CA1_1  and  N1_11 
REMARK    4  A    between atoms: CA2_2  and  CB2_5 
REMARK    5  A    between atoms: CA2_2  and  C2_15 
REMARK    6  A    between atoms: CA2_2  and  N2_16 
REMARK    7  A    between atoms: CA3_3  and  C3_19 
REMARK    8  A    between atoms: CA3_3  and  N3_20 
REMARK    9  A    between atoms: CB1_4  and  CG1_6 
REMARK   10  A    between atoms: CG1_6  and  CD1_8 
REMARK       I    between atoms: CD1_8  and  N2_16 
REMARK       I    between atoms: C2_15  and  N3_20 
ROOT
HETATM    1  CD1 GSH A 210      10.951   6.939  27.542  1.00 75.17     0.218 C 
HETATM    2  OE1 GSH A 210      10.911   5.782  27.112  1.00 75.35    -0.274 OA
HETATM    3  N2  GSH A 210      11.562   7.937  26.911  1.00 75.35    -0.347 N 
ATOM      4  H2  GSH A 210      11.558   8.861  27.342  1.00  0.00     0.163 HD
ENDROOT
BRANCH   3   5
HETATM    5  CA2 GSH A 210      12.237   7.770  25.633  1.00 75.19     0.186 C 
BRANCH   5   6
HETATM    6  CB2 GSH A 210      11.288   8.138  24.484  1.00 75.74     0.120 C 
HETATM    7  SG2 GSH A 210      10.508   6.730  23.634  1.00 76.23    -0.095 SA
ENDBRANCH   5   6
BRANCH   5   8
HETATM    8  C2  GSH A 210      13.456   8.691  25.604  1.00 74.65     0.241 C 
HETATM    9  O2  GSH A 210      13.535   9.607  24.780  1.00 73.83    -0.271 OA
HETATM   10  N3  GSH A 210      14.401   8.444  26.504  1.00 74.50    -0.349 N 
ATOM     11  H3  GSH A 210      14.281   7.674  27.162  1.00  0.00     0.163 HD
BRANCH  10  12
HETATM   12  CA3 GSH A 210      15.600   9.255  26.561  1.00 74.66     0.235 C 
BRANCH  12  13
HETATM   13  C3  GSH A 210      15.506  10.329  27.626  1.00 74.96     0.191 C 
HETATM   14  O31 GSH A 210      14.804  11.338  27.394  1.00 74.82    -0.647 OA
HETATM   15  O32 GSH A 210      16.115  10.154  28.703  1.00 75.16    -0.647 OA
ENDBRANCH  12  13
ENDBRANCH  10  12
ENDBRANCH   5   8
ENDBRANCH   3   5
BRANCH   1  16
HETATM   16  CG1 GSH A 210      10.305   7.308  28.852  1.00 74.50     0.105 C 
BRANCH  16  17
HETATM   17  CB1 GSH A 210       9.038   6.537  29.118  1.00 74.00     0.053 C 
BRANCH  17  18
HETATM   18  CA1 GSH A 210       7.795   7.418  29.183  1.00 73.72     0.283 C 
BRANCH  18  19
HETATM   19  C1  GSH A 210       7.053   7.194  30.503  1.00 73.51     0.204 C 
HETATM   20  O11 GSH A 210       6.587   8.204  31.076  1.00 73.55    -0.646 OA
HETATM   21  O12 GSH A 210       6.913   6.026  30.938  1.00 72.23    -0.646 OA
ENDBRANCH  18  19
BRANCH  18  22
HETATM   22  N1  GSH A 210       8.184   8.852  29.096  1.00 73.31    -0.065 N 
ATOM     23  H13 GSH A 210       9.164   8.967  28.837  1.00  0.00     0.275 HD
ATOM     24  H12 GSH A 210       7.763   9.315  28.290  1.00  0.00     0.275 HD
ATOM     25  H11 GSH A 210       7.960   9.326  29.970  1.00  0.00     0.275 HD
ENDBRANCH  18  22
ENDBRANCH  17  18
ENDBRANCH  16  17
ENDBRANCH   1  16
TORSDOF 10
ENDMDL
MODEL 6
REMARK VINA RESULT:      -5.1     14.531     17.330
REMARK  10 active torsions:
REMARK  status: ('A' for Active; 'I' for Inactive)
REMARK    1  A    between atoms: CA1_1  and  CB1_4 
REMARK    2  A    between atoms: CA1_1  and  C1_10 
REMARK    3  A    between atoms: CA1_1  and  N1_11 
REMARK    4  A    between atoms: CA2_2  and  CB2_5 
REMARK    5  A    between atoms: CA2_2  and  C2_15 
REMARK    6  A    between atoms: CA2_2  and  N2_16 
REMARK    7  A    between atoms: CA3_3  and  C3_19 
REMARK    8  A    between atoms: CA3_3  and  N3_20 
REMARK    9  A    between atoms: CB1_4  and  CG1_6 
REMARK   10  A    between atoms: CG1_6  and  CD1_8 
REMARK       I    between atoms: CD1_8  and  N2_16 
REMARK       I    between atoms: C2_15  and  N3_20 
ROOT
HETATM    1  CD1 GSH A 210       8.568   1.952  28.456  1.00 75.17     0.218 C 
HETATM    2  OE1 GSH A 210       8.534   1.315  27.398  1.00 75.35    -0.274 OA
HETATM    3  N2  GSH A 210       8.707   3.273  28.515  1.00 75.35    -0.347 N 
ATOM      4  H2  GSH A 210       8.737   3.719  29.431  1.00  0.00     0.163 HD
ENDROOT
BRANCH   3   5
HETATM    5  CA2 GSH A 210       8.819   4.110  27.330  1.00 75.19     0.186 C 
BRANCH   5   6
HETATM    6  CB2 GSH A 210       8.912   5.588  27.734  1.00 75.74     0.120 C 
HETATM    7  SG2 GSH A 210       7.395   6.563  27.485  1.00 76.23    -0.095 SA
ENDBRANCH   5   6
BRANCH   5   8
HETATM    8  C2  GSH A 210      10.082   3.708  26.569  1.00 74.65     0.241 C 
HETATM    9  O2  GSH A 210      11.199   3.884  27.065  1.00 73.83    -0.271 OA
HETATM   10  N3  GSH A 210       9.899   3.169  25.369  1.00 74.50    -0.349 N 
ATOM     11  H3  GSH A 210       8.953   3.045  25.011  1.00  0.00     0.163 HD
BRANCH  10  12
HETATM   12  CA3 GSH A 210      11.031   2.754  24.564  1.00 74.66     0.235 C 
BRANCH  12  13
HETATM   13  C3  GSH A 210      10.753   1.464  23.820  1.00 74.96     0.191 C 
HETATM   14  O31 GSH A 210      10.246   0.510  24.451  1.00 74.82    -0.647 OA
HETATM   15  O32 GSH A 210      11.020   1.411  22.600  1.00 75.16    -0.647 OA
ENDBRANCH  12  13
ENDBRANCH  10  12
ENDBRANCH   5   8
ENDBRANCH   3   5
BRANCH   1  16
HETATM   16  CG1 GSH A 210       8.463   1.258  29.789  1.00 74.50     0.105 C 
BRANCH  16  17
HETATM   17  CB1 GSH A 210       7.083   1.341  30.386  1.00 74.00     0.053 C 
BRANCH  17  18
HETATM   18  CA1 GSH A 210       6.988   2.312  31.559  1.00 73.72     0.283 C 
BRANCH  18  19
HETATM   19  C1  GSH A 210       6.297   3.607  31.123  1.00 73.51     0.204 C 
HETATM   20  O11 GSH A 210       5.057   3.675  31.281  1.00 73.55    -0.646 OA
HETATM   21  O12 GSH A 210       6.988   4.546  30.663  1.00 72.23    -0.646 OA
ENDBRANCH  18  19
BRANCH  18  22
HETATM   22  N1  GSH A 210       6.196   1.700  32.661  1.00 73.31    -0.065 N 
ATOM     23  H13 GSH A 210       6.610   1.881  33.575  1.00  0.00     0.275 HD
ATOM     24  H12 GSH A 210       5.306   2.178  32.803  1.00  0.00     0.275 HD
ATOM     25  H11 GSH A 210       6.072   0.703  32.487  1.00  0.00     0.275 HD
ENDBRANCH  18  22
ENDBRANCH  17  18
ENDBRANCH  16  17
ENDBRANCH   1  16
TORSDOF 10
ENDMDL
MODEL 7
REMARK VINA RESULT:      -5.0     14.288     16.250
REMARK  10 active torsions:
REMARK  status: ('A' for Active; 'I' for Inactive)
REMARK    1  A    between atoms: CA1_1  and  CB1_4 
REMARK    2  A    between atoms: CA1_1  and  C1_10 
REMARK    3  A    between atoms: CA1_1  and  N1_11 
REMARK    4  A    between atoms: CA2_2  and  CB2_5 
REMARK    5  A    between atoms: CA2_2  and  C2_15 
REMARK    6  A    between atoms: CA2_2  and  N2_16 
REMARK    7  A    between atoms: CA3_3  and  C3_19 
REMARK    8  A    between atoms: CA3_3  and  N3_20 
REMARK    9  A    between atoms: CB1_4  and  CG1_6 
REMARK   10  A    between atoms: CG1_6  and  CD1_8 
REMARK       I    between atoms: CD1_8  and  N2_16 
REMARK       I    between atoms: C2_15  and  N3_20 
ROOT
HETATM    1  CD1 GSH A 210       8.793   1.627  28.357  1.00 75.17     0.218 C 
HETATM    2  OE1 GSH A 210       9.171   0.928  27.411  1.00 75.35    -0.274 OA
HETATM    3  N2  GSH A 210       8.762   2.956  28.322  1.00 75.35    -0.347 N 
ATOM      4  H2  GSH A 210       8.447   3.457  29.152  1.00  0.00     0.163 HD
ENDROOT
BRANCH   3   5
HETATM    5  CA2 GSH A 210       9.156   3.727  27.152  1.00 75.19     0.186 C 
BRANCH   5   6
HETATM    6  CB2 GSH A 210       7.919   4.349  26.489  1.00 75.74     0.120 C 
HETATM    7  SG2 GSH A 210       6.387   4.276  27.470  1.00 76.23    -0.095 SA
ENDBRANCH   5   6
BRANCH   5   8
HETATM    8  C2  GSH A 210      10.108   4.835  27.601  1.00 74.65     0.241 C 
HETATM    9  O2  GSH A 210      11.256   4.568  27.970  1.00 73.83    -0.271 OA
HETATM   10  N3  GSH A 210       9.628   6.072  27.566  1.00 74.50    -0.349 N 
ATOM     11  H3  GSH A 210       8.672   6.234  27.250  1.00  0.00     0.163 HD
BRANCH  10  12
HETATM   12  CA3 GSH A 210      10.448   7.196  27.973  1.00 74.66     0.235 C 
BRANCH  12  13
HETATM   13  C3  GSH A 210      10.040   7.731  29.332  1.00 74.96     0.191 C 
HETATM   14  O31 GSH A 210      10.817   7.561  30.296  1.00 74.82    -0.647 OA
HETATM   15  O32 GSH A 210       8.953   8.340  29.429  1.00 75.16    -0.647 OA
ENDBRANCH  12  13
ENDBRANCH  10  12
ENDBRANCH   5   8
ENDBRANCH   3   5
BRANCH   1  16
HETATM   16  CG1 GSH A 210       8.343   1.009  29.654  1.00 74.50     0.105 C 
BRANCH  16  17
HETATM   17  CB1 GSH A 210       7.408   1.896  30.433  1.00 74.00     0.053 C 
BRANCH  17  18
HETATM   18  CA1 GSH A 210       6.147   1.180  30.907  1.00 73.72     0.283 C 
BRANCH  18  19
HETATM   19  C1  GSH A 210       6.504   0.096  31.928  1.00 73.51     0.204 C 
HETATM   20  O11 GSH A 210       6.218  -1.086  31.632  1.00 73.55    -0.646 OA
HETATM   21  O12 GSH A 210       7.088   0.421  32.989  1.00 72.23    -0.646 OA
ENDBRANCH  18  19
BRANCH  18  22
HETATM   22  N1  GSH A 210       5.223   2.152  31.551  1.00 73.31    -0.065 N 
ATOM     23  H13 GSH A 210       5.544   2.428  32.478  1.00  0.00     0.275 HD
ATOM     24  H12 GSH A 210       5.257   3.067  31.103  1.00  0.00     0.275 HD
ATOM     25  H11 GSH A 210       4.277   1.771  31.571  1.00  0.00     0.275 HD
ENDBRANCH  18  22
ENDBRANCH  17  18
ENDBRANCH  16  17
ENDBRANCH   1  16
TORSDOF 10
ENDMDL
MODEL 8
REMARK VINA RESULT:      -5.0      2.195      7.609
REMARK  10 active torsions:
REMARK  status: ('A' for Active; 'I' for Inactive)
REMARK    1  A    between atoms: CA1_1  and  CB1_4 
REMARK    2  A    between atoms: CA1_1  and  C1_10 
REMARK    3  A    between atoms: CA1_1  and  N1_11 
REMARK    4  A    between atoms: CA2_2  and  CB2_5 
REMARK    5  A    between atoms: CA2_2  and  C2_15 
REMARK    6  A    between atoms: CA2_2  and  N2_16 
REMARK    7  A    between atoms: CA3_3  and  C3_19 
REMARK    8  A    between atoms: CA3_3  and  N3_20 
REMARK    9  A    between atoms: CB1_4  and  CG1_6 
REMARK   10  A    between atoms: CG1_6  and  CD1_8 
REMARK       I    between atoms: CD1_8  and  N2_16 
REMARK       I    between atoms: C2_15  and  N3_20 
ROOT
HETATM    1  CD1 GSH A 210      10.678  18.656  32.011  1.00 75.17     0.218 C 
HETATM    2  OE1 GSH A 210      11.068  17.570  32.451  1.00 75.35    -0.274 OA
HETATM    3  N2  GSH A 210      10.034  18.794  30.856  1.00 75.35    -0.347 N 
ATOM      4  H2  GSH A 210       9.757  19.730  30.562  1.00  0.00     0.163 HD
ENDROOT
BRANCH   3   5
HETATM    5  CA2 GSH A 210       9.706  17.669  29.994  1.00 75.19     0.186 C 
BRANCH   5   6
HETATM    6  CB2 GSH A 210       8.190  17.607  29.760  1.00 75.74     0.120 C 
HETATM    7  SG2 GSH A 210       7.200  18.778  30.741  1.00 76.23    -0.095 SA
ENDBRANCH   5   6
BRANCH   5   8
HETATM    8  C2  GSH A 210      10.423  17.858  28.657  1.00 74.65     0.241 C 
HETATM    9  O2  GSH A 210      10.762  18.983  28.278  1.00 73.83    -0.271 OA
HETATM   10  N3  GSH A 210      10.651  16.757  27.951  1.00 74.50    -0.349 N 
ATOM     11  H3  GSH A 210      10.350  15.853  28.316  1.00  0.00     0.163 HD
BRANCH  10  12
HETATM   12  CA3 GSH A 210      11.322  16.825  26.668  1.00 74.66     0.235 C 
BRANCH  12  13
HETATM   13  C3  GSH A 210      11.767  15.458  26.190  1.00 74.96     0.191 C 
HETATM   14  O31 GSH A 210      12.904  15.346  25.681  1.00 74.82    -0.647 OA
HETATM   15  O32 GSH A 210      10.990  14.492  26.344  1.00 75.16    -0.647 OA
ENDBRANCH  12  13
ENDBRANCH  10  12
ENDBRANCH   5   8
ENDBRANCH   3   5
BRANCH   1  16
HETATM   16  CG1 GSH A 210      10.922  19.937  32.766  1.00 74.50     0.105 C 
BRANCH  16  17
HETATM   17  CB1 GSH A 210       9.652  20.567  33.277  1.00 74.00     0.053 C 
BRANCH  17  18
HETATM   18  CA1 GSH A 210       8.893  19.685  34.263  1.00 73.72     0.283 C 
BRANCH  18  19
HETATM   19  C1  GSH A 210       9.738  19.440  35.517  1.00 73.51     0.204 C 
HETATM   20  O11 GSH A 210      10.018  20.435  36.221  1.00 73.55    -0.646 OA
HETATM   21  O12 GSH A 210      10.084  18.269  35.804  1.00 72.23    -0.646 OA
ENDBRANCH  18  19
BRANCH  18  22
HETATM   22  N1  GSH A 210       7.626  20.352  34.669  1.00 73.31    -0.065 N 
ATOM     23  H13 GSH A 210       7.755  21.351  34.830  1.00  0.00     0.275 HD
ATOM     24  H12 GSH A 210       6.960  20.410  33.899  1.00  0.00     0.275 HD
ATOM     25  H11 GSH A 210       7.231  19.881  35.483  1.00  0.00     0.275 HD
ENDBRANCH  18  22
ENDBRANCH  17  18
ENDBRANCH  16  17
ENDBRANCH   1  16
TORSDOF 10
ENDMDL
