REMARK  Name = 10gs_ligand
REMARK  14 active torsions:
REMARK  status: ('A' for Active; 'I' for Inactive)
REMARK    1  A    between atoms: N_1  and  CA_2
REMARK    2  A    between atoms: CA_2  and  C_3
REMARK    3  A    between atoms: CA_2  and  CB_5
REMARK    4  A    between atoms: CB_5  and  CG_6
REMARK    5  A    between atoms: CG_6  and  CD_7
REMARK    6  A    between atoms: N_10  and  CA_11
REMARK    7  A    between atoms: CA_11  and  CB_12
REMARK    8  A    between atoms: CA_11  and  C_21
REMARK    9  A    between atoms: CB_12  and  SG_13
REMARK   10  A    between atoms: SG_13  and  CD_14
REMARK   11  A    between atoms: CD_14  and  CE_15
REMARK   12  A    between atoms: N_23  and  CA_24
REMARK   13  A    between atoms: CA_24  and  CB_25
REMARK   14  A    between atoms: CA_24  and  C_31
REMARK                            x       y       z     vdW  Elec       q    Type
REMARK                         _______ _______ _______ _____ _____    ______ ____
ROOT
ATOM      1  C   UNK A   1      -2.113  -0.403  -3.014  0.00  0.00    +0.221 C 
ENDROOT
BRANCH   1   3
ATOM      2  C   UNK A   1      -2.801   1.405  -4.511  0.00  0.00    +0.178 C 
ATOM      3  N   UNK A   1      -1.844   0.753  -3.859  0.00  0.00    -0.265 N 
ATOM      4  H   UNK A   1      -0.900   1.070  -3.951  0.00  0.00    +0.188 HD
ATOM      5  O   UNK A   1      -3.995   1.128  -4.418  0.00  0.00    -0.397 OA
BRANCH   2   6
ATOM      6  C   UNK A   1      -2.332   2.565  -5.355  0.00  0.00    +0.145 C 
BRANCH   6   7
ATOM      7  C   UNK A   1      -1.875   2.159  -6.742  0.00  0.00    +0.092 C 
BRANCH   7   8
ATOM      8  C   UNK A   1      -2.822   2.642  -7.842  0.00  0.00    +0.133 C 
BRANCH   8   9
ATOM      9  N   UNK A   1      -4.147   1.979  -7.709  0.00  0.00    +0.233 N 
ATOM     10  H   UNK A   1      -4.331   1.788  -6.736  0.00  0.00    +0.201 HD
ATOM     11  H   UNK A   1      -4.865   2.586  -8.073  0.00  0.00    +0.201 HD
ATOM     12  H   UNK A   1      -4.144   1.114  -8.227  0.00  0.00    +0.201 HD
ENDBRANCH   8   9
BRANCH   8  13
ATOM     13  C   UNK A   1      -2.209   2.380  -9.224  0.00  0.00    +0.085 C 
ATOM     14  O   UNK A   1      -2.635   1.407  -9.876  0.00  0.00    -0.564 OA
ATOM     15  O   UNK A   1      -1.326   3.157  -9.649  0.00  0.00    -0.564 OA
ENDBRANCH   8  13
ENDBRANCH   7   8
ENDBRANCH   6   7
ENDBRANCH   2   6
ENDBRANCH   1   3
BRANCH   1  16
ATOM     16  C   UNK A   1      -1.494  -0.225  -1.641  0.00  0.00    +0.206 C 
ATOM     17  N   UNK A   2      -0.236   0.193  -1.638  0.00  0.00    -0.259 N 
ATOM     18  H   UNK A   2       0.226   0.330  -2.514  0.00  0.00    +0.190 HD
ATOM     19  O   UNK A   1      -2.149  -0.423  -0.618  0.00  0.00    -0.394 OA
BRANCH  17  20
ATOM     20  C   UNK A   2       0.498   0.460  -0.416  0.00  0.00    +0.216 C 
BRANCH  20  21
ATOM     21  C   UNK A   2       0.920   1.891  -0.316  0.00  0.00    -0.005 A 
ATOM     22  C   UNK A   2       0.312   2.852  -1.111  0.00  0.00    -0.000 A 
ATOM     23  C   UNK A   2       0.741   4.173  -1.085  0.00  0.00    -0.008 A 
ATOM     24  C   UNK A   2       1.791   4.544  -0.254  0.00  0.00    -0.013 A 
ATOM     25  C   UNK A   2       2.404   3.593   0.549  0.00  0.00    -0.008 A 
ATOM     26  C   UNK A   2       1.966   2.272   0.516  0.00  0.00    -0.000 A 
ENDBRANCH  20  21
BRANCH  20  27
ATOM     27  C   UNK A   2       1.592  -0.560  -0.108  0.00  0.00    +0.072 C 
ATOM     28  O   UNK A   2       1.735  -0.966   1.066  0.00  0.00    -0.564 OA
ATOM     29  O   UNK A   2       2.303  -0.938  -1.059  0.00  0.00    -0.564 OA
ENDBRANCH  20  27
ENDBRANCH  17  20
ENDBRANCH   1  16
BRANCH   1  30
ATOM     30  C   UNK A   1      -1.497  -1.659  -3.630  0.00  0.00    +0.121 C 
BRANCH  30  31
ATOM     31  S   UNK A   1      -2.110  -3.214  -3.001  0.00  0.00    -0.142 S 
BRANCH  31  32
ATOM     32  C   UNK A   1      -3.551  -2.640  -2.077  0.00  0.00    +0.135 C 
BRANCH  32  33
ATOM     33  C   UNK A   1      -3.683  -3.259  -0.711  0.00  0.00    -0.033 A 
ATOM     34  C   UNK A   1      -2.554  -3.629   0.017  0.00  0.00    -0.004 A 
ATOM     35  C   UNK A   1      -2.678  -4.201   1.284  0.00  0.00    -0.009 A 
ATOM     36  C   UNK A   1      -3.938  -4.408   1.830  0.00  0.00    -0.013 A 
ATOM     37  C   UNK A   1      -5.074  -4.041   1.111  0.00  0.00    -0.009 A 
ATOM     38  C   UNK A   1      -4.941  -3.471  -0.152  0.00  0.00    -0.004 A 
ENDBRANCH  32  33
ENDBRANCH  31  32
ENDBRANCH  30  31
ENDBRANCH   1  30
TORSDOF 14
