REMARK  Name = 10gs_ligand
REMARK  14 active torsions:
REMARK  status: ('A' for Active; 'I' for Inactive)
REMARK    1  A    between atoms: N_1  and  CA_2
REMARK    2  A    between atoms: CA_2  and  C_3
REMARK    3  A    between atoms: CA_2  and  CB_5
REMARK    4  A    between atoms: CB_5  and  CG_6
REMARK    5  A    between atoms: CG_6  and  CD_7
REMARK    6  A    between atoms: N_10  and  CA_11
REMARK    7  A    between atoms: CA_11  and  CB_12
REMARK    8  A    between atoms: CA_11  and  C_21
REMARK    9  A    between atoms: CB_12  and  SG_13
REMARK   10  A    between atoms: SG_13  and  CD_14
REMARK   11  A    between atoms: CD_14  and  CE_15
REMARK   12  A    between atoms: N_23  and  CA_24
REMARK   13  A    between atoms: CA_24  and  CB_25
REMARK   14  A    between atoms: CA_24  and  C_31
REMARK                            x       y       z     vdW  Elec       q    Type
REMARK                         _______ _______ _______ _____ _____    ______ ____
ROOT
ATOM      1  C   UNK A   1      -5.243  -7.448   7.199  0.00  0.00    +0.221 C 
ENDROOT
BRANCH   1   3
ATOM      2  C   UNK A   1      -5.253  -8.250   4.887  0.00  0.00    +0.178 C 
ATOM      3  N   UNK A   1      -5.017  -8.462   6.179  0.00  0.00    -0.265 N 
ATOM      4  H   UNK A   1      -4.670  -9.357   6.461  0.00  0.00    +0.188 HD
ATOM      5  O   UNK A   1      -5.627  -7.169   4.436  0.00  0.00    -0.397 OA
BRANCH   2   6
ATOM      6  C   UNK A   1      -4.980  -9.423   3.979  0.00  0.00    +0.145 C 
BRANCH   6   7
ATOM      7  C   UNK A   1      -4.451  -9.023   2.616  0.00  0.00    +0.092 C 
BRANCH   7   8
ATOM      8  C   UNK A   1      -4.658 -10.109   1.559  0.00  0.00    +0.133 C 
BRANCH   8   9
ATOM      9  N   UNK A   1      -3.418 -10.287   0.755  0.00  0.00    +0.233 N 
ATOM     10  H   UNK A   1      -3.561  -9.915  -0.170  0.00  0.00    +0.201 HD
ATOM     11  H   UNK A   1      -2.656  -9.799   1.200  0.00  0.00    +0.201 HD
ATOM     12  H   UNK A   1      -3.197 -11.269   0.692  0.00  0.00    +0.201 HD
ENDBRANCH   8   9
BRANCH   8  13
ATOM     13  C   UNK A   1      -5.852  -9.759   0.663  0.00  0.00    +0.085 C 
ATOM     14  O   UNK A   1      -5.936  -8.593   0.230  0.00  0.00    -0.564 OA
ATOM     15  O   UNK A   1      -6.681 -10.653   0.386  0.00  0.00    -0.564 OA
ENDBRANCH   8  13
ENDBRANCH   7   8
ENDBRANCH   6   7
ENDBRANCH   2   6
ENDBRANCH   1   3
BRANCH   1  16
ATOM     16  C   UNK A   1      -3.949  -6.744   7.559  0.00  0.00    +0.206 C 
ATOM     17  N   UNK A   2      -3.482  -5.914   6.637  0.00  0.00    -0.259 N 
ATOM     18  H   UNK A   2      -3.978  -5.829   5.773  0.00  0.00    +0.190 HD
ATOM     19  O   UNK A   1      -3.414  -6.920   8.653  0.00  0.00    -0.394 OA
BRANCH  17  20
ATOM     20  C   UNK A   2      -2.281  -5.124   6.831  0.00  0.00    +0.216 C 
BRANCH  20  21
ATOM     21  C   UNK A   2      -2.537  -3.662   6.655  0.00  0.00    -0.005 A 
ATOM     22  C   UNK A   2      -2.959  -3.173   5.426  0.00  0.00    -0.000 A 
ATOM     23  C   UNK A   2      -3.131  -1.810   5.224  0.00  0.00    -0.008 A 
ATOM     24  C   UNK A   2      -2.880  -0.918   6.259  0.00  0.00    -0.013 A 
ATOM     25  C   UNK A   2      -2.462  -1.395   7.493  0.00  0.00    -0.008 A 
ATOM     26  C   UNK A   2      -2.293  -2.763   7.686  0.00  0.00    -0.000 A 
ENDBRANCH  20  21
BRANCH  20  27
ATOM     27  C   UNK A   2      -1.054  -5.660   6.096  0.00  0.00    +0.072 C 
ATOM     28  O   UNK A   2      -1.214  -6.354   5.069  0.00  0.00    -0.564 OA
ATOM     29  O   UNK A   2       0.062  -5.379   6.571  0.00  0.00    -0.564 OA
ENDBRANCH  20  27
ENDBRANCH  17  20
ENDBRANCH   1  16
BRANCH   1  30
ATOM     30  C   UNK A   1      -5.778  -8.096   8.476  0.00  0.00    +0.121 C 
BRANCH  30  31
ATOM     31  S   UNK A   1      -7.315  -7.434   9.099  0.00  0.00    -0.142 S 
BRANCH  31  32
ATOM     32  C   UNK A   1      -8.414  -8.832   8.795  0.00  0.00    +0.135 C 
BRANCH  32  33
ATOM     33  C   UNK A   1      -8.005 -10.094   9.508  0.00  0.00    -0.033 A 
ATOM     34  C   UNK A   1      -7.989 -11.317   8.842  0.00  0.00    -0.004 A 
ATOM     35  C   UNK A   1      -7.607 -12.485   9.503  0.00  0.00    -0.009 A 
ATOM     36  C   UNK A   1      -7.239 -12.434  10.841  0.00  0.00    -0.013 A 
ATOM     37  C   UNK A   1      -7.251 -11.215  11.518  0.00  0.00    -0.009 A 
ATOM     38  C   UNK A   1      -7.633 -10.056  10.849  0.00  0.00    -0.004 A 
ENDBRANCH  32  33
ENDBRANCH  31  32
ENDBRANCH  30  31
ENDBRANCH   1  30
TORSDOF 14
