MODEL 1
REMARK VINA RESULT:      -7.9      0.000      0.000
REMARK  Name = 10gs_ligand
REMARK  14 active torsions:
REMARK  status: ('A' for Active; 'I' for Inactive)
REMARK    1  A    between atoms: N_1  and  CA_2
REMARK    2  A    between atoms: CA_2  and  C_3
REMARK    3  A    between atoms: CA_2  and  CB_5
REMARK    4  A    between atoms: CB_5  and  CG_6
REMARK    5  A    between atoms: CG_6  and  CD_7
REMARK    6  A    between atoms: N_10  and  CA_11
REMARK    7  A    between atoms: CA_11  and  CB_12
REMARK    8  A    between atoms: CA_11  and  C_21
REMARK    9  A    between atoms: CB_12  and  SG_13
REMARK   10  A    between atoms: SG_13  and  CD_14
REMARK   11  A    between atoms: CD_14  and  CE_15
REMARK   12  A    between atoms: N_23  and  CA_24
REMARK   13  A    between atoms: CA_24  and  CB_25
REMARK   14  A    between atoms: CA_24  and  C_31
REMARK                            x       y       z     vdW  Elec       q    Type
REMARK                         _______ _______ _______ _____ _____    ______ ____
ROOT
ATOM      1  C   UNK A   1      10.178   6.344  27.576  0.00  0.00    +0.221 C 
ENDROOT
BRANCH   1   3
ATOM      2  C   UNK A   1      11.745   7.621  26.198  0.00  0.00    +0.178 C 
ATOM      3  N   UNK A   1      11.368   7.163  27.388  0.00  0.00    -0.265 N 
ATOM      4  H   UNK A   1      11.925   7.390  28.187  0.00  0.00    +0.188 HD
ATOM      5  O   UNK A   1      11.098   7.443  25.167  0.00  0.00    -0.397 OA
BRANCH   2   6
ATOM      6  C   UNK A   1      13.015   8.435  26.192  0.00  0.00    +0.145 C 
BRANCH   6   7
ATOM      7  C   UNK A   1      13.442   8.882  24.807  0.00  0.00    +0.092 C 
BRANCH   7   8
ATOM      8  C   UNK A   1      14.713   9.732  24.825  0.00  0.00    +0.133 C 
BRANCH   8   9
ATOM      9  N   UNK A   1      14.600  10.847  23.847  0.00  0.00    +0.233 N 
ATOM     10  H   UNK A   1      13.672  10.856  23.453  0.00  0.00    +0.201 HD
ATOM     11  H   UNK A   1      14.775  11.723  24.314  0.00  0.00    +0.201 HD
ATOM     12  H   UNK A   1      15.277  10.719  23.111  0.00  0.00    +0.201 HD
ENDBRANCH   8   9
BRANCH   8  13
ATOM     13  C   UNK A   1      15.940   8.860  24.530  0.00  0.00    +0.085 C 
ATOM     14  O   UNK A   1      16.453   8.233  25.478  0.00  0.00    -0.564 OA
ATOM     15  O   UNK A   1      16.365   8.795  23.356  0.00  0.00    -0.564 OA
ENDBRANCH   8  13
ENDBRANCH   7   8
ENDBRANCH   6   7
ENDBRANCH   2   6
ENDBRANCH   1   3
BRANCH   1  16
ATOM     16  C   UNK A   1       9.448   6.736  28.846  0.00  0.00    +0.206 C 
ATOM     17  N   UNK A   2       8.269   6.156  29.022  0.00  0.00    -0.259 N 
ATOM     18  H   UNK A   2       7.927   5.540  28.313  0.00  0.00    +0.190 HD
ATOM     19  O   UNK A   1       9.956   7.508  29.659  0.00  0.00    -0.394 OA
BRANCH  17  20
ATOM     20  C   UNK A   2       7.455   6.378  30.202  0.00  0.00    +0.216 C 
BRANCH  20  21
ATOM     21  C   UNK A   2       6.955   5.097  30.788  0.00  0.00    -0.005 A 
ATOM     22  C   UNK A   2       6.220   5.110  31.965  0.00  0.00    -0.000 A 
ATOM     23  C   UNK A   2       5.811   3.925  32.562  0.00  0.00    -0.008 A 
ATOM     24  C   UNK A   2       6.136   2.707  31.979  0.00  0.00    -0.013 A 
ATOM     25  C   UNK A   2       6.867   2.681  30.799  0.00  0.00    -0.008 A 
ATOM     26  C   UNK A   2       7.272   3.874  30.209  0.00  0.00    -0.000 A 
ENDBRANCH  20  21
BRANCH  20  27
ATOM     27  C   UNK A   2       6.399   7.470  30.036  0.00  0.00    +0.072 C 
ATOM     28  O   UNK A   2       5.573   7.383  29.103  0.00  0.00    -0.564 OA
ATOM     29  O   UNK A   2       6.422   8.413  30.850  0.00  0.00    -0.564 OA
ENDBRANCH  20  27
ENDBRANCH  17  20
ENDBRANCH   1  16
BRANCH   1  30
ATOM     30  C   UNK A   1      10.569   4.872  27.713  0.00  0.00    +0.121 C 
BRANCH  30  31
ATOM     31  S   UNK A   1       9.476   3.702  26.922  0.00  0.00    -0.142 S 
BRANCH  31  32
ATOM     32  C   UNK A   1       9.221   4.523  25.334  0.00  0.00    +0.135 C 
BRANCH  32  33
ATOM     33  C   UNK A   1       7.824   5.046  25.137  0.00  0.00    -0.033 A 
ATOM     34  C   UNK A   1       7.465   5.699  23.960  0.00  0.00    -0.004 A 
ATOM     35  C   UNK A   1       6.168   6.182  23.778  0.00  0.00    -0.009 A 
ATOM     36  C   UNK A   1       5.221   6.015  24.780  0.00  0.00    -0.013 A 
ATOM     37  C   UNK A   1       5.569   5.363  25.962  0.00  0.00    -0.009 A 
ATOM     38  C   UNK A   1       6.864   4.884  26.133  0.00  0.00    -0.004 A 
ENDBRANCH  32  33
ENDBRANCH  31  32
ENDBRANCH  30  31
ENDBRANCH   1  30
TORSDOF 14
ENDMDL
MODEL 2
REMARK VINA RESULT:      -7.8      3.357      5.009
REMARK  Name = 10gs_ligand
REMARK  14 active torsions:
REMARK  status: ('A' for Active; 'I' for Inactive)
REMARK    1  A    between atoms: N_1  and  CA_2
REMARK    2  A    between atoms: CA_2  and  C_3
REMARK    3  A    between atoms: CA_2  and  CB_5
REMARK    4  A    between atoms: CB_5  and  CG_6
REMARK    5  A    between atoms: CG_6  and  CD_7
REMARK    6  A    between atoms: N_10  and  CA_11
REMARK    7  A    between atoms: CA_11  and  CB_12
REMARK    8  A    between atoms: CA_11  and  C_21
REMARK    9  A    between atoms: CB_12  and  SG_13
REMARK   10  A    between atoms: SG_13  and  CD_14
REMARK   11  A    between atoms: CD_14  and  CE_15
REMARK   12  A    between atoms: N_23  and  CA_24
REMARK   13  A    between atoms: CA_24  and  CB_25
REMARK   14  A    between atoms: CA_24  and  C_31
REMARK                            x       y       z     vdW  Elec       q    Type
REMARK                         _______ _______ _______ _____ _____    ______ ____
ROOT
ATOM      1  C   UNK A   1       8.018   6.324  27.928  0.00  0.00    +0.221 C 
ENDROOT
BRANCH   1   3
ATOM      2  C   UNK A   1      10.265   7.214  27.548  0.00  0.00    +0.178 C 
ATOM      3  N   UNK A   1       9.085   6.828  27.073  0.00  0.00    -0.265 N 
ATOM      4  H   UNK A   1       8.923   6.885  26.088  0.00  0.00    +0.188 HD
ATOM      5  O   UNK A   1      10.579   7.131  28.735  0.00  0.00    -0.397 OA
BRANCH   2   6
ATOM      6  C   UNK A   1      11.239   7.727  26.517  0.00  0.00    +0.145 C 
BRANCH   6   7
ATOM      7  C   UNK A   1      11.674   6.672  25.518  0.00  0.00    +0.092 C 
BRANCH   7   8
ATOM      8  C   UNK A   1      11.783   5.278  26.138  0.00  0.00    +0.133 C 
BRANCH   8   9
ATOM      9  N   UNK A   1      13.128   5.088  26.745  0.00  0.00    +0.233 N 
ATOM     10  H   UNK A   1      13.691   5.906  26.576  0.00  0.00    +0.201 HD
ATOM     11  H   UNK A   1      13.031   4.944  27.738  0.00  0.00    +0.201 HD
ATOM     12  H   UNK A   1      13.572   4.283  26.331  0.00  0.00    +0.201 HD
ENDBRANCH   8   9
BRANCH   8  13
ATOM     13  C   UNK A   1      11.495   4.203  25.082  0.00  0.00    +0.085 C 
ATOM     14  O   UNK A   1      11.328   3.031  25.473  0.00  0.00    -0.564 OA
ATOM     15  O   UNK A   1      11.420   4.543  23.881  0.00  0.00    -0.564 OA
ENDBRANCH   8  13
ENDBRANCH   7   8
ENDBRANCH   6   7
ENDBRANCH   2   6
ENDBRANCH   1   3
BRANCH   1  16
ATOM     16  C   UNK A   1       7.846   4.828  27.753  0.00  0.00    +0.206 C 
ATOM     17  N   UNK A   2       8.168   4.095  28.810  0.00  0.00    -0.259 N 
ATOM     18  H   UNK A   2       8.526   4.556  29.622  0.00  0.00    +0.190 HD
ATOM     19  O   UNK A   1       7.398   4.358  26.708  0.00  0.00    -0.394 OA
BRANCH  17  20
ATOM     20  C   UNK A   2       8.023   2.652  28.836  0.00  0.00    +0.216 C 
BRANCH  20  21
ATOM     21  C   UNK A   2       7.546   2.160  30.164  0.00  0.00    -0.005 A 
ATOM     22  C   UNK A   2       7.611   0.809  30.471  0.00  0.00    -0.000 A 
ATOM     23  C   UNK A   2       7.106   0.326  31.671  0.00  0.00    -0.008 A 
ATOM     24  C   UNK A   2       6.526   1.200  32.581  0.00  0.00    -0.013 A 
ATOM     25  C   UNK A   2       6.458   2.554  32.288  0.00  0.00    -0.008 A 
ATOM     26  C   UNK A   2       6.968   3.029  31.083  0.00  0.00    -0.000 A 
ENDBRANCH  20  21
BRANCH  20  27
ATOM     27  C   UNK A   2       9.214   1.893  28.254  0.00  0.00    +0.072 C 
ATOM     28  O   UNK A   2      10.365   2.159  28.662  0.00  0.00    -0.564 OA
ATOM     29  O   UNK A   2       8.973   1.038  27.381  0.00  0.00    -0.564 OA
ENDBRANCH  20  27
ENDBRANCH  17  20
ENDBRANCH   1  16
BRANCH   1  30
ATOM     30  C   UNK A   1       6.689   6.981  27.552  0.00  0.00    +0.121 C 
BRANCH  30  31
ATOM     31  S   UNK A   1       5.368   6.797  28.740  0.00  0.00    -0.142 S 
BRANCH  31  32
ATOM     32  C   UNK A   1       4.302   5.637  27.858  0.00  0.00    +0.135 C 
BRANCH  32  33
ATOM     33  C   UNK A   1       4.061   4.350  28.600  0.00  0.00    -0.033 A 
ATOM     34  C   UNK A   1       3.503   4.355  29.876  0.00  0.00    -0.004 A 
ATOM     35  C   UNK A   1       3.279   3.160  30.563  0.00  0.00    -0.009 A 
ATOM     36  C   UNK A   1       3.615   1.949  29.972  0.00  0.00    -0.013 A 
ATOM     37  C   UNK A   1       4.175   1.932  28.695  0.00  0.00    -0.009 A 
ATOM     38  C   UNK A   1       4.394   3.129  28.019  0.00  0.00    -0.004 A 
ENDBRANCH  32  33
ENDBRANCH  31  32
ENDBRANCH  30  31
ENDBRANCH   1  30
TORSDOF 14
ENDMDL
MODEL 3
REMARK VINA RESULT:      -7.7      4.450      5.922
REMARK  Name = 10gs_ligand
REMARK  14 active torsions:
REMARK  status: ('A' for Active; 'I' for Inactive)
REMARK    1  A    between atoms: N_1  and  CA_2
REMARK    2  A    between atoms: CA_2  and  C_3
REMARK    3  A    between atoms: CA_2  and  CB_5
REMARK    4  A    between atoms: CB_5  and  CG_6
REMARK    5  A    between atoms: CG_6  and  CD_7
REMARK    6  A    between atoms: N_10  and  CA_11
REMARK    7  A    between atoms: CA_11  and  CB_12
REMARK    8  A    between atoms: CA_11  and  C_21
REMARK    9  A    between atoms: CB_12  and  SG_13
REMARK   10  A    between atoms: SG_13  and  CD_14
REMARK   11  A    between atoms: CD_14  and  CE_15
REMARK   12  A    between atoms: N_23  and  CA_24
REMARK   13  A    between atoms: CA_24  and  CB_25
REMARK   14  A    between atoms: CA_24  and  C_31
REMARK                            x       y       z     vdW  Elec       q    Type
REMARK                         _______ _______ _______ _____ _____    ______ ____
ROOT
ATOM      1  C   UNK A   1      10.084   3.111  27.542  0.00  0.00    +0.221 C 
ENDROOT
BRANCH   1   3
ATOM      2  C   UNK A   1      10.477   2.352  25.249  0.00  0.00    +0.178 C 
ATOM      3  N   UNK A   1      10.161   3.322  26.102  0.00  0.00    -0.265 N 
ATOM      4  H   UNK A   1       9.968   4.233  25.741  0.00  0.00    +0.188 HD
ATOM      5  O   UNK A   1      10.677   1.187  25.591  0.00  0.00    -0.397 OA
BRANCH   2   6
ATOM      6  C   UNK A   1      10.529   2.760  23.798  0.00  0.00    +0.145 C 
BRANCH   6   7
ATOM      7  C   UNK A   1      11.815   2.360  23.102  0.00  0.00    +0.092 C 
BRANCH   7   8
ATOM      8  C   UNK A   1      11.636   1.161  22.170  0.00  0.00    +0.133 C 
BRANCH   8   9
ATOM      9  N   UNK A   1      11.234  -0.041  22.950  0.00  0.00    +0.233 N 
ATOM     10  H   UNK A   1      11.916  -0.218  23.670  0.00  0.00    +0.201 HD
ATOM     11  H   UNK A   1      10.332   0.119  23.372  0.00  0.00    +0.201 HD
ATOM     12  H   UNK A   1      11.179  -0.838  22.335  0.00  0.00    +0.201 HD
ENDBRANCH   8   9
BRANCH   8  13
ATOM     13  C   UNK A   1      12.926   0.903  21.382  0.00  0.00    +0.085 C 
ATOM     14  O   UNK A   1      12.956  -0.082  20.618  0.00  0.00    -0.564 OA
ATOM     15  O   UNK A   1      13.885   1.693  21.519  0.00  0.00    -0.564 OA
ENDBRANCH   8  13
ENDBRANCH   7   8
ENDBRANCH   6   7
ENDBRANCH   2   6
ENDBRANCH   1   3
BRANCH   1  16
ATOM     16  C   UNK A   1       8.650   2.887  27.979  0.00  0.00    +0.206 C 
ATOM     17  N   UNK A   2       8.497   2.504  29.239  0.00  0.00    -0.259 N 
ATOM     18  H   UNK A   2       9.312   2.358  29.799  0.00  0.00    +0.190 HD
ATOM     19  O   UNK A   1       7.711   3.093  27.210  0.00  0.00    -0.394 OA
BRANCH  17  20
ATOM     20  C   UNK A   2       7.193   2.289  29.839  0.00  0.00    +0.216 C 
BRANCH  20  21
ATOM     21  C   UNK A   2       6.788   3.425  30.722  0.00  0.00    -0.005 A 
ATOM     22  C   UNK A   2       6.322   3.178  32.006  0.00  0.00    -0.000 A 
ATOM     23  C   UNK A   2       5.873   4.215  32.812  0.00  0.00    -0.008 A 
ATOM     24  C   UNK A   2       5.887   5.520  32.336  0.00  0.00    -0.013 A 
ATOM     25  C   UNK A   2       6.355   5.781  31.055  0.00  0.00    -0.008 A 
ATOM     26  C   UNK A   2       6.803   4.734  30.255  0.00  0.00    -0.000 A 
ENDBRANCH  20  21
BRANCH  20  27
ATOM     27  C   UNK A   2       7.007   0.899  30.446  0.00  0.00    +0.072 C 
ATOM     28  O   UNK A   2       8.015   0.225  30.747  0.00  0.00    -0.564 OA
ATOM     29  O   UNK A   2       5.838   0.500  30.605  0.00  0.00    -0.564 OA
ENDBRANCH  20  27
ENDBRANCH  17  20
ENDBRANCH   1  16
BRANCH   1  30
ATOM     30  C   UNK A   1      10.597   4.346  28.282  0.00  0.00    +0.121 C 
BRANCH  30  31
ATOM     31  S   UNK A   1      10.323   5.911  27.465  0.00  0.00    -0.142 S 
BRANCH  31  32
ATOM     32  C   UNK A   1      10.434   7.033  28.875  0.00  0.00    +0.135 C 
BRANCH  32  33
ATOM     33  C   UNK A   1       9.162   7.791  29.150  0.00  0.00    -0.033 A 
ATOM     34  C   UNK A   1       9.025   8.558  30.305  0.00  0.00    -0.004 A 
ATOM     35  C   UNK A   1       7.846   9.262  30.558  0.00  0.00    -0.009 A 
ATOM     36  C   UNK A   1       6.794   9.198  29.653  0.00  0.00    -0.013 A 
ATOM     37  C   UNK A   1       6.921   8.433  28.495  0.00  0.00    -0.009 A 
ATOM     38  C   UNK A   1       8.101   7.735  28.251  0.00  0.00    -0.004 A 
ENDBRANCH  32  33
ENDBRANCH  31  32
ENDBRANCH  30  31
ENDBRANCH   1  30
TORSDOF 14
ENDMDL
MODEL 4
REMARK VINA RESULT:      -7.7      2.187      3.416
REMARK  Name = 10gs_ligand
REMARK  14 active torsions:
REMARK  status: ('A' for Active; 'I' for Inactive)
REMARK    1  A    between atoms: N_1  and  CA_2
REMARK    2  A    between atoms: CA_2  and  C_3
REMARK    3  A    between atoms: CA_2  and  CB_5
REMARK    4  A    between atoms: CB_5  and  CG_6
REMARK    5  A    between atoms: CG_6  and  CD_7
REMARK    6  A    between atoms: N_10  and  CA_11
REMARK    7  A    between atoms: CA_11  and  CB_12
REMARK    8  A    between atoms: CA_11  and  C_21
REMARK    9  A    between atoms: CB_12  and  SG_13
REMARK   10  A    between atoms: SG_13  and  CD_14
REMARK   11  A    between atoms: CD_14  and  CE_15
REMARK   12  A    between atoms: N_23  and  CA_24
REMARK   13  A    between atoms: CA_24  and  CB_25
REMARK   14  A    between atoms: CA_24  and  C_31
REMARK                            x       y       z     vdW  Elec       q    Type
REMARK                         _______ _______ _______ _____ _____    ______ ____
ROOT
ATOM      1  C   UNK A   1      10.500   8.480  24.809  0.00  0.00    +0.221 C 
ENDROOT
BRANCH   1   3
ATOM      2  C   UNK A   1      12.045   9.781  23.428  0.00  0.00    +0.178 C 
ATOM      3  N   UNK A   1      11.570   8.605  23.830  0.00  0.00    -0.265 N 
ATOM      4  H   UNK A   1      11.966   7.772  23.443  0.00  0.00    +0.188 HD
ATOM      5  O   UNK A   1      11.663  10.857  23.885  0.00  0.00    -0.397 OA
BRANCH   2   6
ATOM      6  C   UNK A   1      13.139   9.716  22.393  0.00  0.00    +0.145 C 
BRANCH   6   7
ATOM      7  C   UNK A   1      14.508  10.081  22.934  0.00  0.00    +0.092 C 
BRANCH   7   8
ATOM      8  C   UNK A   1      14.667   9.745  24.418  0.00  0.00    +0.133 C 
BRANCH   8   9
ATOM      9  N   UNK A   1      14.664  10.990  25.231  0.00  0.00    +0.233 N 
ATOM     10  H   UNK A   1      13.805  11.493  25.073  0.00  0.00    +0.201 HD
ATOM     11  H   UNK A   1      14.741  10.754  26.208  0.00  0.00    +0.201 HD
ATOM     12  H   UNK A   1      15.446  11.568  24.964  0.00  0.00    +0.201 HD
ENDBRANCH   8   9
BRANCH   8  13
ATOM     13  C   UNK A   1      15.952   8.938  24.645  0.00  0.00    +0.085 C 
ATOM     14  O   UNK A   1      16.631   8.629  23.647  0.00  0.00    -0.564 OA
ATOM     15  O   UNK A   1      16.277   8.639  25.815  0.00  0.00    -0.564 OA
ENDBRANCH   8  13
ENDBRANCH   7   8
ENDBRANCH   6   7
ENDBRANCH   2   6
ENDBRANCH   1   3
BRANCH   1  16
ATOM     16  C   UNK A   1      10.997   7.803  26.071  0.00  0.00    +0.206 C 
ATOM     17  N   UNK A   2      10.070   7.564  26.988  0.00  0.00    -0.259 N 
ATOM     18  H   UNK A   2       9.133   7.865  26.812  0.00  0.00    +0.190 HD
ATOM     19  O   UNK A   1      12.177   7.473  26.192  0.00  0.00    -0.394 OA
BRANCH  17  20
ATOM     20  C   UNK A   2      10.359   6.883  28.236  0.00  0.00    +0.216 C 
BRANCH  20  21
ATOM     21  C   UNK A   2       9.840   5.482  28.243  0.00  0.00    -0.005 A 
ATOM     22  C   UNK A   2      10.628   4.445  27.765  0.00  0.00    -0.000 A 
ATOM     23  C   UNK A   2      10.135   3.149  27.697  0.00  0.00    -0.008 A 
ATOM     24  C   UNK A   2       8.837   2.878  28.110  0.00  0.00    -0.013 A 
ATOM     25  C   UNK A   2       8.039   3.906  28.594  0.00  0.00    -0.008 A 
ATOM     26  C   UNK A   2       8.543   5.201  28.659  0.00  0.00    -0.000 A 
ENDBRANCH  20  21
BRANCH  20  27
ATOM     27  C   UNK A   2      10.033   7.702  29.484  0.00  0.00    +0.072 C 
ATOM     28  O   UNK A   2      10.757   7.584  30.496  0.00  0.00    -0.564 OA
ATOM     29  O   UNK A   2       9.041   8.452  29.429  0.00  0.00    -0.564 OA
ENDBRANCH  20  27
ENDBRANCH  17  20
ENDBRANCH   1  16
BRANCH   1  30
ATOM     30  C   UNK A   1       9.370   7.616  24.246  0.00  0.00    +0.121 C 
BRANCH  30  31
ATOM     31  S   UNK A   1       9.845   5.990  23.681  0.00  0.00    -0.142 S 
BRANCH  31  32
ATOM     32  C   UNK A   1       8.683   4.973  24.617  0.00  0.00    +0.135 C 
BRANCH  32  33
ATOM     33  C   UNK A   1       7.258   5.452  24.539  0.00  0.00    -0.033 A 
ATOM     34  C   UNK A   1       6.392   5.293  25.619  0.00  0.00    -0.004 A 
ATOM     35  C   UNK A   1       5.072   5.738  25.547  0.00  0.00    -0.009 A 
ATOM     36  C   UNK A   1       4.609   6.346  24.387  0.00  0.00    -0.013 A 
ATOM     37  C   UNK A   1       5.466   6.511  23.301  0.00  0.00    -0.009 A 
ATOM     38  C   UNK A   1       6.782   6.063  23.383  0.00  0.00    -0.004 A 
ENDBRANCH  32  33
ENDBRANCH  31  32
ENDBRANCH  30  31
ENDBRANCH   1  30
TORSDOF 14
ENDMDL
MODEL 5
REMARK VINA RESULT:      -7.7      2.852      4.214
REMARK  Name = 10gs_ligand
REMARK  14 active torsions:
REMARK  status: ('A' for Active; 'I' for Inactive)
REMARK    1  A    between atoms: N_1  and  CA_2
REMARK    2  A    between atoms: CA_2  and  C_3
REMARK    3  A    between atoms: CA_2  and  CB_5
REMARK    4  A    between atoms: CB_5  and  CG_6
REMARK    5  A    between atoms: CG_6  and  CD_7
REMARK    6  A    between atoms: N_10  and  CA_11
REMARK    7  A    between atoms: CA_11  and  CB_12
REMARK    8  A    between atoms: CA_11  and  C_21
REMARK    9  A    between atoms: CB_12  and  SG_13
REMARK   10  A    between atoms: SG_13  and  CD_14
REMARK   11  A    between atoms: CD_14  and  CE_15
REMARK   12  A    between atoms: N_23  and  CA_24
REMARK   13  A    between atoms: CA_24  and  CB_25
REMARK   14  A    between atoms: CA_24  and  C_31
REMARK                            x       y       z     vdW  Elec       q    Type
REMARK                         _______ _______ _______ _____ _____    ______ ____
ROOT
ATOM      1  C   UNK A   1      10.550   8.797  24.655  0.00  0.00    +0.221 C 
ENDROOT
BRANCH   1   3
ATOM      2  C   UNK A   1      12.074  10.022  23.185  0.00  0.00    +0.178 C 
ATOM      3  N   UNK A   1      11.570   8.870  23.618  0.00  0.00    -0.265 N 
ATOM      4  H   UNK A   1      11.906   8.019  23.215  0.00  0.00    +0.188 HD
ATOM      5  O   UNK A   1      11.766  11.116  23.655  0.00  0.00    -0.397 OA
BRANCH   2   6
ATOM      6  C   UNK A   1      13.106   9.905  22.092  0.00  0.00    +0.145 C 
BRANCH   6   7
ATOM      7  C   UNK A   1      14.522  10.173  22.564  0.00  0.00    +0.092 C 
BRANCH   7   8
ATOM      8  C   UNK A   1      14.766   9.704  24.000  0.00  0.00    +0.133 C 
BRANCH   8   9
ATOM      9  N   UNK A   1      14.774  10.867  24.927  0.00  0.00    +0.233 N 
ATOM     10  H   UNK A   1      15.722  11.178  25.068  0.00  0.00    +0.201 HD
ATOM     11  H   UNK A   1      14.230  11.617  24.529  0.00  0.00    +0.201 HD
ATOM     12  H   UNK A   1      14.374  10.595  25.811  0.00  0.00    +0.201 HD
ENDBRANCH   8   9
BRANCH   8  13
ATOM     13  C   UNK A   1      16.080   8.918  24.087  0.00  0.00    +0.085 C 
ATOM     14  O   UNK A   1      16.764   8.808  23.050  0.00  0.00    -0.564 OA
ATOM     15  O   UNK A   1      16.424   8.438  25.189  0.00  0.00    -0.564 OA
ENDBRANCH   8  13
ENDBRANCH   7   8
ENDBRANCH   6   7
ENDBRANCH   2   6
ENDBRANCH   1   3
BRANCH   1  16
ATOM     16  C   UNK A   1      11.027   7.958  25.825  0.00  0.00    +0.206 C 
ATOM     17  N   UNK A   2      10.119   7.729  26.763  0.00  0.00    -0.259 N 
ATOM     18  H   UNK A   2       9.212   8.138  26.663  0.00  0.00    +0.190 HD
ATOM     19  O   UNK A   1      12.169   7.501  25.855  0.00  0.00    -0.394 OA
BRANCH  17  20
ATOM     20  C   UNK A   2      10.387   6.908  27.929  0.00  0.00    +0.216 C 
BRANCH  20  21
ATOM     21  C   UNK A   2       9.865   5.517  27.768  0.00  0.00    -0.005 A 
ATOM     22  C   UNK A   2       8.573   5.307  27.307  0.00  0.00    -0.000 A 
ATOM     23  C   UNK A   2       8.048   4.025  27.221  0.00  0.00    -0.008 A 
ATOM     24  C   UNK A   2       8.818   2.933  27.598  0.00  0.00    -0.013 A 
ATOM     25  C   UNK A   2      10.113   3.129  28.057  0.00  0.00    -0.008 A 
ATOM     26  C   UNK A   2      10.631   4.418  28.139  0.00  0.00    -0.000 A 
ENDBRANCH  20  21
BRANCH  20  27
ATOM     27  C   UNK A   2      10.044   7.579  29.258  0.00  0.00    +0.072 C 
ATOM     28  O   UNK A   2       8.959   8.189  29.370  0.00  0.00    -0.564 OA
ATOM     29  O   UNK A   2      10.882   7.488  30.175  0.00  0.00    -0.564 OA
ENDBRANCH  20  27
ENDBRANCH  17  20
ENDBRANCH   1  16
BRANCH   1  30
ATOM     30  C   UNK A   1       9.288   8.132  24.105  0.00  0.00    +0.121 C 
BRANCH  30  31
ATOM     31  S   UNK A   1       9.552   6.849  22.890  0.00  0.00    -0.142 S 
BRANCH  31  32
ATOM     32  C   UNK A   1       8.930   5.417  23.794  0.00  0.00    +0.135 C 
BRANCH  32  33
ATOM     33  C   UNK A   1       9.913   4.280  23.883  0.00  0.00    -0.033 A 
ATOM     34  C   UNK A   1      11.071   4.396  24.649  0.00  0.00    -0.004 A 
ATOM     35  C   UNK A   1      11.981   3.341  24.732  0.00  0.00    -0.009 A 
ATOM     36  C   UNK A   1      11.735   2.160  24.043  0.00  0.00    -0.013 A 
ATOM     37  C   UNK A   1      10.580   2.033  23.274  0.00  0.00    -0.009 A 
ATOM     38  C   UNK A   1       9.678   3.091  23.198  0.00  0.00    -0.004 A 
ENDBRANCH  32  33
ENDBRANCH  31  32
ENDBRANCH  30  31
ENDBRANCH   1  30
TORSDOF 14
ENDMDL
MODEL 6
REMARK VINA RESULT:      -7.6      2.071      2.831
REMARK  Name = 10gs_ligand
REMARK  14 active torsions:
REMARK  status: ('A' for Active; 'I' for Inactive)
REMARK    1  A    between atoms: N_1  and  CA_2
REMARK    2  A    between atoms: CA_2  and  C_3
REMARK    3  A    between atoms: CA_2  and  CB_5
REMARK    4  A    between atoms: CB_5  and  CG_6
REMARK    5  A    between atoms: CG_6  and  CD_7
REMARK    6  A    between atoms: N_10  and  CA_11
REMARK    7  A    between atoms: CA_11  and  CB_12
REMARK    8  A    between atoms: CA_11  and  C_21
REMARK    9  A    between atoms: CB_12  and  SG_13
REMARK   10  A    between atoms: SG_13  and  CD_14
REMARK   11  A    between atoms: CD_14  and  CE_15
REMARK   12  A    between atoms: N_23  and  CA_24
REMARK   13  A    between atoms: CA_24  and  CB_25
REMARK   14  A    between atoms: CA_24  and  C_31
REMARK                            x       y       z     vdW  Elec       q    Type
REMARK                         _______ _______ _______ _____ _____    ______ ____
ROOT
ATOM      1  C   UNK A   1      10.483   6.707  27.736  0.00  0.00    +0.221 C 
ENDROOT
BRANCH   1   3
ATOM      2  C   UNK A   1      12.039   7.711  26.137  0.00  0.00    +0.178 C 
ATOM      3  N   UNK A   1      11.646   7.514  27.392  0.00  0.00    -0.265 N 
ATOM      4  H   UNK A   1      12.170   7.938  28.130  0.00  0.00    +0.188 HD
ATOM      5  O   UNK A   1      11.429   7.279  25.160  0.00  0.00    -0.397 OA
BRANCH   2   6
ATOM      6  C   UNK A   1      13.277   8.557  25.974  0.00  0.00    +0.145 C 
BRANCH   6   7
ATOM      7  C   UNK A   1      13.504   9.030  24.551  0.00  0.00    +0.092 C 
BRANCH   7   8
ATOM      8  C   UNK A   1      14.782   9.857  24.399  0.00  0.00    +0.133 C 
BRANCH   8   9
ATOM      9  N   UNK A   1      14.671  10.763  23.223  0.00  0.00    +0.233 N 
ATOM     10  H   UNK A   1      15.588  11.087  22.961  0.00  0.00    +0.201 HD
ATOM     11  H   UNK A   1      14.258  10.263  22.451  0.00  0.00    +0.201 HD
ATOM     12  H   UNK A   1      14.090  11.552  23.460  0.00  0.00    +0.201 HD
ENDBRANCH   8   9
BRANCH   8  13
ATOM     13  C   UNK A   1      16.001   8.936  24.274  0.00  0.00    +0.085 C 
ATOM     14  O   UNK A   1      16.482   8.754  23.138  0.00  0.00    -0.564 OA
ATOM     15  O   UNK A   1      16.475   8.420  25.310  0.00  0.00    -0.564 OA
ENDBRANCH   8  13
ENDBRANCH   7   8
ENDBRANCH   6   7
ENDBRANCH   2   6
ENDBRANCH   1   3
BRANCH   1  16
ATOM     16  C   UNK A   1       9.822   7.222  29.000  0.00  0.00    +0.206 C 
ATOM     17  N   UNK A   2       8.504   7.087  29.044  0.00  0.00    -0.259 N 
ATOM     18  H   UNK A   2       8.035   6.696  28.252  0.00  0.00    +0.190 HD
ATOM     19  O   UNK A   1      10.491   7.691  29.920  0.00  0.00    -0.394 OA
BRANCH  17  20
ATOM     20  C   UNK A   2       7.714   7.482  30.194  0.00  0.00    +0.216 C 
BRANCH  20  21
ATOM     21  C   UNK A   2       6.617   6.509  30.483  0.00  0.00    -0.005 A 
ATOM     22  C   UNK A   2       5.407   6.604  29.809  0.00  0.00    -0.000 A 
ATOM     23  C   UNK A   2       4.353   5.755  30.117  0.00  0.00    -0.008 A 
ATOM     24  C   UNK A   2       4.503   4.795  31.109  0.00  0.00    -0.013 A 
ATOM     25  C   UNK A   2       5.709   4.687  31.787  0.00  0.00    -0.008 A 
ATOM     26  C   UNK A   2       6.760   5.542  31.471  0.00  0.00    -0.000 A 
ENDBRANCH  20  21
BRANCH  20  27
ATOM     27  C   UNK A   2       7.293   8.951  30.188  0.00  0.00    +0.072 C 
ATOM     28  O   UNK A   2       7.214   9.558  29.098  0.00  0.00    -0.564 OA
ATOM     29  O   UNK A   2       7.052   9.479  31.290  0.00  0.00    -0.564 OA
ENDBRANCH  20  27
ENDBRANCH  17  20
ENDBRANCH   1  16
BRANCH   1  30
ATOM     30  C   UNK A   1      10.905   5.262  28.001  0.00  0.00    +0.121 C 
BRANCH  30  31
ATOM     31  S   UNK A   1      10.094   4.020  27.007  0.00  0.00    -0.142 S 
BRANCH  31  32
ATOM     32  C   UNK A   1       9.864   2.721  28.239  0.00  0.00    +0.135 C 
BRANCH  32  33
ATOM     33  C   UNK A   1       8.426   2.494  28.621  0.00  0.00    -0.033 A 
ATOM     34  C   UNK A   1       8.095   1.694  29.713  0.00  0.00    -0.004 A 
ATOM     35  C   UNK A   1       6.762   1.485  30.067  0.00  0.00    -0.009 A 
ATOM     36  C   UNK A   1       5.748   2.078  29.326  0.00  0.00    -0.013 A 
ATOM     37  C   UNK A   1       6.067   2.881  28.232  0.00  0.00    -0.009 A 
ATOM     38  C   UNK A   1       7.400   3.083  27.887  0.00  0.00    -0.004 A 
ENDBRANCH  32  33
ENDBRANCH  31  32
ENDBRANCH  30  31
ENDBRANCH   1  30
TORSDOF 14
ENDMDL
MODEL 7
REMARK VINA RESULT:      -7.6      1.885      2.176
REMARK  Name = 10gs_ligand
REMARK  14 active torsions:
REMARK  status: ('A' for Active; 'I' for Inactive)
REMARK    1  A    between atoms: N_1  and  CA_2
REMARK    2  A    between atoms: CA_2  and  C_3
REMARK    3  A    between atoms: CA_2  and  CB_5
REMARK    4  A    between atoms: CB_5  and  CG_6
REMARK    5  A    between atoms: CG_6  and  CD_7
REMARK    6  A    between atoms: N_10  and  CA_11
REMARK    7  A    between atoms: CA_11  and  CB_12
REMARK    8  A    between atoms: CA_11  and  C_21
REMARK    9  A    between atoms: CB_12  and  SG_13
REMARK   10  A    between atoms: SG_13  and  CD_14
REMARK   11  A    between atoms: CD_14  and  CE_15
REMARK   12  A    between atoms: N_23  and  CA_24
REMARK   13  A    between atoms: CA_24  and  CB_25
REMARK   14  A    between atoms: CA_24  and  C_31
REMARK                            x       y       z     vdW  Elec       q    Type
REMARK                         _______ _______ _______ _____ _____    ______ ____
ROOT
ATOM      1  C   UNK A   1      11.021   6.434  26.796  0.00  0.00    +0.221 C 
ENDROOT
BRANCH   1   3
ATOM      2  C   UNK A   1      12.676   8.018  25.938  0.00  0.00    +0.178 C 
ATOM      3  N   UNK A   1      12.367   6.984  26.715  0.00  0.00    -0.265 N 
ATOM      4  H   UNK A   1      13.089   6.567  27.267  0.00  0.00    +0.188 HD
ATOM      5  O   UNK A   1      11.849   8.632  25.266  0.00  0.00    -0.397 OA
BRANCH   2   6
ATOM      6  C   UNK A   1      14.125   8.437  25.967  0.00  0.00    +0.145 C 
BRANCH   6   7
ATOM      7  C   UNK A   1      14.322   9.940  25.935  0.00  0.00    +0.092 C 
BRANCH   7   8
ATOM      8  C   UNK A   1      15.477  10.405  26.823  0.00  0.00    +0.133 C 
BRANCH   8   9
ATOM      9  N   UNK A   1      15.820   9.351  27.815  0.00  0.00    +0.233 N 
ATOM     10  H   UNK A   1      16.813   9.360  27.985  0.00  0.00    +0.201 HD
ATOM     11  H   UNK A   1      15.330   9.529  28.678  0.00  0.00    +0.201 HD
ATOM     12  H   UNK A   1      15.548   8.449  27.455  0.00  0.00    +0.201 HD
ENDBRANCH   8   9
BRANCH   8  13
ATOM     13  C   UNK A   1      15.115  11.723  27.519  0.00  0.00    +0.085 C 
ATOM     14  O   UNK A   1      14.523  12.593  26.851  0.00  0.00    -0.564 OA
ATOM     15  O   UNK A   1      15.409  11.868  28.726  0.00  0.00    -0.564 OA
ENDBRANCH   8  13
ENDBRANCH   7   8
ENDBRANCH   6   7
ENDBRANCH   2   6
ENDBRANCH   1   3
BRANCH   1  16
ATOM     16  C   UNK A   1      10.266   7.023  27.972  0.00  0.00    +0.206 C 
ATOM     17  N   UNK A   2       9.009   6.621  28.095  0.00  0.00    -0.259 N 
ATOM     18  H   UNK A   2       8.635   5.999  27.408  0.00  0.00    +0.190 HD
ATOM     19  O   UNK A   1      10.818   7.787  28.764  0.00  0.00    -0.394 OA
BRANCH  17  20
ATOM     20  C   UNK A   2       8.154   7.047  29.187  0.00  0.00    +0.216 C 
BRANCH  20  21
ATOM     21  C   UNK A   2       7.525   5.888  29.892  0.00  0.00    -0.005 A 
ATOM     22  C   UNK A   2       6.774   6.096  31.040  0.00  0.00    -0.000 A 
ATOM     23  C   UNK A   2       6.245   5.025  31.748  0.00  0.00    -0.008 A 
ATOM     24  C   UNK A   2       6.464   3.726  31.307  0.00  0.00    -0.013 A 
ATOM     25  C   UNK A   2       7.209   3.506  30.157  0.00  0.00    -0.008 A 
ATOM     26  C   UNK A   2       7.735   4.586  29.455  0.00  0.00    -0.000 A 
ENDBRANCH  20  21
BRANCH  20  27
ATOM     27  C   UNK A   2       7.197   8.182  28.826  0.00  0.00    +0.072 C 
ATOM     28  O   UNK A   2       7.408   9.326  29.282  0.00  0.00    -0.564 OA
ATOM     29  O   UNK A   2       6.235   7.902  28.086  0.00  0.00    -0.564 OA
ENDBRANCH  20  27
ENDBRANCH  17  20
ENDBRANCH   1  16
BRANCH   1  30
ATOM     30  C   UNK A   1      11.083   4.922  27.009  0.00  0.00    +0.121 C 
BRANCH  30  31
ATOM     31  S   UNK A   1      10.258   3.929  25.774  0.00  0.00    -0.142 S 
BRANCH  31  32
ATOM     32  C   UNK A   1       9.646   5.225  24.677  0.00  0.00    +0.135 C 
BRANCH  32  33
ATOM     33  C   UNK A   1       8.156   5.429  24.749  0.00  0.00    -0.033 A 
ATOM     34  C   UNK A   1       7.478   6.105  23.736  0.00  0.00    -0.004 A 
ATOM     35  C   UNK A   1       6.097   6.292  23.804  0.00  0.00    -0.009 A 
ATOM     36  C   UNK A   1       5.384   5.802  24.891  0.00  0.00    -0.013 A 
ATOM     37  C   UNK A   1       6.052   5.125  25.909  0.00  0.00    -0.009 A 
ATOM     38  C   UNK A   1       7.430   4.943  25.833  0.00  0.00    -0.004 A 
ENDBRANCH  32  33
ENDBRANCH  31  32
ENDBRANCH  30  31
ENDBRANCH   1  30
TORSDOF 14
ENDMDL
MODEL 8
REMARK VINA RESULT:      -7.5      3.507      4.682
REMARK  Name = 10gs_ligand
REMARK  14 active torsions:
REMARK  status: ('A' for Active; 'I' for Inactive)
REMARK    1  A    between atoms: N_1  and  CA_2
REMARK    2  A    between atoms: CA_2  and  C_3
REMARK    3  A    between atoms: CA_2  and  CB_5
REMARK    4  A    between atoms: CB_5  and  CG_6
REMARK    5  A    between atoms: CG_6  and  CD_7
REMARK    6  A    between atoms: N_10  and  CA_11
REMARK    7  A    between atoms: CA_11  and  CB_12
REMARK    8  A    between atoms: CA_11  and  C_21
REMARK    9  A    between atoms: CB_12  and  SG_13
REMARK   10  A    between atoms: SG_13  and  CD_14
REMARK   11  A    between atoms: CD_14  and  CE_15
REMARK   12  A    between atoms: N_23  and  CA_24
REMARK   13  A    between atoms: CA_24  and  CB_25
REMARK   14  A    between atoms: CA_24  and  C_31
REMARK                            x       y       z     vdW  Elec       q    Type
REMARK                         _______ _______ _______ _____ _____    ______ ____
ROOT
ATOM      1  C   UNK A   1       6.744   7.180  28.969  0.00  0.00    +0.221 C 
ENDROOT
BRANCH   1   3
ATOM      2  C   UNK A   1       9.112   7.776  29.118  0.00  0.00    +0.178 C 
ATOM      3  N   UNK A   1       8.152   6.983  28.653  0.00  0.00    -0.265 N 
ATOM      4  H   UNK A   1       8.408   6.218  28.061  0.00  0.00    +0.188 HD
ATOM      5  O   UNK A   1       8.905   8.707  29.895  0.00  0.00    -0.397 OA
BRANCH   2   6
ATOM      6  C   UNK A   1      10.510   7.431  28.668  0.00  0.00    +0.145 C 
BRANCH   6   7
ATOM      7  C   UNK A   1      10.549   6.457  27.507  0.00  0.00    +0.092 C 
BRANCH   7   8
ATOM      8  C   UNK A   1      11.222   5.131  27.868  0.00  0.00    +0.133 C 
BRANCH   8   9
ATOM      9  N   UNK A   1      12.242   4.776  26.845  0.00  0.00    +0.233 N 
ATOM     10  H   UNK A   1      12.002   5.210  25.967  0.00  0.00    +0.201 HD
ATOM     11  H   UNK A   1      13.147   5.103  27.146  0.00  0.00    +0.201 HD
ATOM     12  H   UNK A   1      12.267   3.775  26.729  0.00  0.00    +0.201 HD
ENDBRANCH   8   9
BRANCH   8  13
ATOM     13  C   UNK A   1      10.171   4.023  28.010  0.00  0.00    +0.085 C 
ATOM     14  O   UNK A   1      10.544   2.842  27.865  0.00  0.00    -0.564 OA
ATOM     15  O   UNK A   1       8.992   4.341  28.281  0.00  0.00    -0.564 OA
ENDBRANCH   8  13
ENDBRANCH   7   8
ENDBRANCH   6   7
ENDBRANCH   2   6
ENDBRANCH   1   3
BRANCH   1  16
ATOM     16  C   UNK A   1       6.405   6.585  30.322  0.00  0.00    +0.206 C 
ATOM     17  N   UNK A   2       6.369   5.261  30.363  0.00  0.00    -0.259 N 
ATOM     18  H   UNK A   2       6.530   4.750  29.519  0.00  0.00    +0.190 HD
ATOM     19  O   UNK A   1       6.220   7.304  31.303  0.00  0.00    -0.394 OA
BRANCH  17  20
ATOM     20  C   UNK A   2       6.106   4.523  31.584  0.00  0.00    +0.216 C 
BRANCH  20  21
ATOM     21  C   UNK A   2       6.607   3.116  31.508  0.00  0.00    -0.005 A 
ATOM     22  C   UNK A   2       7.279   2.677  30.376  0.00  0.00    -0.000 A 
ATOM     23  C   UNK A   2       7.686   1.355  30.258  0.00  0.00    -0.008 A 
ATOM     24  C   UNK A   2       7.422   0.454  31.281  0.00  0.00    -0.013 A 
ATOM     25  C   UNK A   2       6.754   0.882  32.420  0.00  0.00    -0.008 A 
ATOM     26  C   UNK A   2       6.350   2.209  32.529  0.00  0.00    -0.000 A 
ENDBRANCH  20  21
BRANCH  20  27
ATOM     27  C   UNK A   2       4.681   4.675  32.112  0.00  0.00    +0.072 C 
ATOM     28  O   UNK A   2       3.725   4.274  31.413  0.00  0.00    -0.564 OA
ATOM     29  O   UNK A   2       4.541   5.207  33.229  0.00  0.00    -0.564 OA
ENDBRANCH  20  27
ENDBRANCH  17  20
ENDBRANCH   1  16
BRANCH   1  30
ATOM     30  C   UNK A   1       5.869   6.477  27.931  0.00  0.00    +0.121 C 
BRANCH  30  31
ATOM     31  S   UNK A   1       6.178   6.915  26.228  0.00  0.00    -0.142 S 
BRANCH  31  32
ATOM     32  C   UNK A   1       6.835   5.352  25.608  0.00  0.00    +0.135 C 
BRANCH  32  33
ATOM     33  C   UNK A   1       8.129   5.494  24.852  0.00  0.00    -0.033 A 
ATOM     34  C   UNK A   1       8.963   4.397  24.653  0.00  0.00    -0.004 A 
ATOM     35  C   UNK A   1      10.162   4.529  23.951  0.00  0.00    -0.009 A 
ATOM     36  C   UNK A   1      10.533   5.767  23.443  0.00  0.00    -0.013 A 
ATOM     37  C   UNK A   1       9.706   6.872  23.636  0.00  0.00    -0.009 A 
ATOM     38  C   UNK A   1       8.512   6.730  24.338  0.00  0.00    -0.004 A 
ENDBRANCH  32  33
ENDBRANCH  31  32
ENDBRANCH  30  31
ENDBRANCH   1  30
TORSDOF 14
ENDMDL
MODEL 9
REMARK VINA RESULT:      -7.5      3.747      4.961
REMARK  Name = 10gs_ligand
REMARK  14 active torsions:
REMARK  status: ('A' for Active; 'I' for Inactive)
REMARK    1  A    between atoms: N_1  and  CA_2
REMARK    2  A    between atoms: CA_2  and  C_3
REMARK    3  A    between atoms: CA_2  and  CB_5
REMARK    4  A    between atoms: CB_5  and  CG_6
REMARK    5  A    between atoms: CG_6  and  CD_7
REMARK    6  A    between atoms: N_10  and  CA_11
REMARK    7  A    between atoms: CA_11  and  CB_12
REMARK    8  A    between atoms: CA_11  and  C_21
REMARK    9  A    between atoms: CB_12  and  SG_13
REMARK   10  A    between atoms: SG_13  and  CD_14
REMARK   11  A    between atoms: CD_14  and  CE_15
REMARK   12  A    between atoms: N_23  and  CA_24
REMARK   13  A    between atoms: CA_24  and  CB_25
REMARK   14  A    between atoms: CA_24  and  C_31
REMARK                            x       y       z     vdW  Elec       q    Type
REMARK                         _______ _______ _______ _____ _____    ______ ____
ROOT
ATOM      1  C   UNK A   1       7.848   6.776  28.822  0.00  0.00    +0.221 C 
ENDROOT
BRANCH   1   3
ATOM      2  C   UNK A   1      10.066   5.866  28.334  0.00  0.00    +0.178 C 
ATOM      3  N   UNK A   1       8.743   5.796  28.221  0.00  0.00    -0.265 N 
ATOM      4  H   UNK A   1       8.346   5.038  27.703  0.00  0.00    +0.188 HD
ATOM      5  O   UNK A   1      10.646   6.726  28.995  0.00  0.00    -0.397 OA
BRANCH   2   6
ATOM      6  C   UNK A   1      10.833   4.775  27.628  0.00  0.00    +0.145 C 
BRANCH   6   7
ATOM      7  C   UNK A   1      10.232   4.379  26.294  0.00  0.00    +0.092 C 
BRANCH   7   8
ATOM      8  C   UNK A   1       9.974   2.875  26.183  0.00  0.00    +0.133 C 
BRANCH   8   9
ATOM      9  N   UNK A   1      10.240   2.210  27.487  0.00  0.00    +0.233 N 
ATOM     10  H   UNK A   1      10.478   2.906  28.177  0.00  0.00    +0.201 HD
ATOM     11  H   UNK A   1       9.417   1.710  27.784  0.00  0.00    +0.201 HD
ATOM     12  H   UNK A   1      11.006   1.563  27.384  0.00  0.00    +0.201 HD
ENDBRANCH   8   9
BRANCH   8  13
ATOM     13  C   UNK A   1      10.833   2.268  25.067  0.00  0.00    +0.085 C 
ATOM     14  O   UNK A   1      10.303   1.430  24.312  0.00  0.00    -0.564 OA
ATOM     15  O   UNK A   1      12.018   2.647  24.945  0.00  0.00    -0.564 OA
ENDBRANCH   8  13
ENDBRANCH   7   8
ENDBRANCH   6   7
ENDBRANCH   2   6
ENDBRANCH   1   3
BRANCH   1  16
ATOM     16  C   UNK A   1       7.333   6.288  30.162  0.00  0.00    +0.206 C 
ATOM     17  N   UNK A   2       6.903   5.035  30.180  0.00  0.00    -0.259 N 
ATOM     18  H   UNK A   2       6.913   4.512  29.328  0.00  0.00    +0.190 HD
ATOM     19  O   UNK A   1       7.361   7.014  31.155  0.00  0.00    -0.394 OA
BRANCH  17  20
ATOM     20  C   UNK A   2       6.420   4.390  31.386  0.00  0.00    +0.216 C 
BRANCH  20  21
ATOM     21  C   UNK A   2       6.698   2.921  31.387  0.00  0.00    -0.005 A 
ATOM     22  C   UNK A   2       6.292   2.136  32.457  0.00  0.00    -0.000 A 
ATOM     23  C   UNK A   2       6.606   0.785  32.508  0.00  0.00    -0.008 A 
ATOM     24  C   UNK A   2       7.335   0.203  31.478  0.00  0.00    -0.013 A 
ATOM     25  C   UNK A   2       7.743   0.976  30.401  0.00  0.00    -0.008 A 
ATOM     26  C   UNK A   2       7.422   2.330  30.359  0.00  0.00    -0.000 A 
ENDBRANCH  20  21
BRANCH  20  27
ATOM     27  C   UNK A   2       4.995   4.780  31.775  0.00  0.00    +0.072 C 
ATOM     28  O   UNK A   2       4.065   4.574  30.967  0.00  0.00    -0.564 OA
ATOM     29  O   UNK A   2       4.832   5.299  32.896  0.00  0.00    -0.564 OA
ENDBRANCH  20  27
ENDBRANCH  17  20
ENDBRANCH   1  16
BRANCH   1  30
ATOM     30  C   UNK A   1       6.632   6.998  27.922  0.00  0.00    +0.121 C 
BRANCH  30  31
ATOM     31  S   UNK A   1       6.298   5.706  26.735  0.00  0.00    -0.142 S 
BRANCH  31  32
ATOM     32  C   UNK A   1       4.502   5.595  26.877  0.00  0.00    +0.135 C 
BRANCH  32  33
ATOM     33  C   UNK A   1       4.006   4.223  27.249  0.00  0.00    -0.033 A 
ATOM     34  C   UNK A   1       2.713   3.818  26.922  0.00  0.00    -0.004 A 
ATOM     35  C   UNK A   1       2.255   2.546  27.265  0.00  0.00    -0.009 A 
ATOM     36  C   UNK A   1       3.092   1.669  27.943  0.00  0.00    -0.013 A 
ATOM     37  C   UNK A   1       4.387   2.063  28.276  0.00  0.00    -0.009 A 
ATOM     38  C   UNK A   1       4.835   3.334  27.928  0.00  0.00    -0.004 A 
ENDBRANCH  32  33
ENDBRANCH  31  32
ENDBRANCH  30  31
ENDBRANCH   1  30
TORSDOF 14
ENDMDL
