MODEL 1
REMARK VINA RESULT:      -7.4      0.000      0.000
REMARK  Name = 10gs_ligand
REMARK  14 active torsions:
REMARK  status: ('A' for Active; 'I' for Inactive)
REMARK    1  A    between atoms: N_1  and  CA_2
REMARK    2  A    between atoms: CA_2  and  C_3
REMARK    3  A    between atoms: CA_2  and  CB_5
REMARK    4  A    between atoms: CB_5  and  CG_6
REMARK    5  A    between atoms: CG_6  and  CD_7
REMARK    6  A    between atoms: N_10  and  CA_11
REMARK    7  A    between atoms: CA_11  and  CB_12
REMARK    8  A    between atoms: CA_11  and  C_21
REMARK    9  A    between atoms: CB_12  and  SG_13
REMARK   10  A    between atoms: SG_13  and  CD_14
REMARK   11  A    between atoms: CD_14  and  CE_15
REMARK   12  A    between atoms: N_23  and  CA_24
REMARK   13  A    between atoms: CA_24  and  CB_25
REMARK   14  A    between atoms: CA_24  and  C_31
REMARK                            x       y       z     vdW  Elec       q    Type
REMARK                         _______ _______ _______ _____ _____    ______ ____
ROOT
ATOM      1  C   UNK A   1      10.382   6.759  27.694  0.00  0.00    +0.221 C 
ENDROOT
BRANCH   1   3
ATOM      2  C   UNK A   1      11.932   7.796  26.110  0.00  0.00    +0.178 C 
ATOM      3  N   UNK A   1      11.638   7.411  27.349  0.00  0.00    -0.265 N 
ATOM      4  H   UNK A   1      12.307   7.577  28.073  0.00  0.00    +0.188 HD
ATOM      5  O   UNK A   1      11.155   7.686  25.164  0.00  0.00    -0.397 OA
BRANCH   2   6
ATOM      6  C   UNK A   1      13.287   8.436  25.938  0.00  0.00    +0.145 C 
BRANCH   6   7
ATOM      7  C   UNK A   1      13.497   9.050  24.567  0.00  0.00    +0.092 C 
BRANCH   7   8
ATOM      8  C   UNK A   1      14.782   9.875  24.478  0.00  0.00    +0.133 C 
BRANCH   8   9
ATOM      9  N   UNK A   1      14.685  10.859  23.366  0.00  0.00    +0.233 N 
ATOM     10  H   UNK A   1      15.519  11.425  23.345  0.00  0.00    +0.201 HD
ATOM     11  H   UNK A   1      14.589  10.368  22.491  0.00  0.00    +0.201 HD
ATOM     12  H   UNK A   1      13.881  11.450  23.510  0.00  0.00    +0.201 HD
ENDBRANCH   8   9
BRANCH   8  13
ATOM     13  C   UNK A   1      15.994   8.954  24.298  0.00  0.00    +0.085 C 
ATOM     14  O   UNK A   1      16.455   8.813  23.149  0.00  0.00    -0.564 OA
ATOM     15  O   UNK A   1      16.484   8.398  25.306  0.00  0.00    -0.564 OA
ENDBRANCH   8  13
ENDBRANCH   7   8
ENDBRANCH   6   7
ENDBRANCH   2   6
ENDBRANCH   1   3
BRANCH   1  16
ATOM     16  C   UNK A   1       9.813   7.327  28.979  0.00  0.00    +0.206 C 
ATOM     17  N   UNK A   2       8.490   7.381  29.036  0.00  0.00    -0.259 N 
ATOM     18  H   UNK A   2       7.963   7.084  28.240  0.00  0.00    +0.190 HD
ATOM     19  O   UNK A   1      10.550   7.668  29.904  0.00  0.00    -0.394 OA
BRANCH  17  20
ATOM     20  C   UNK A   2       7.775   7.853  30.207  0.00  0.00    +0.216 C 
BRANCH  20  21
ATOM     21  C   UNK A   2       6.622   6.967  30.555  0.00  0.00    -0.005 A 
ATOM     22  C   UNK A   2       6.797   5.911  31.438  0.00  0.00    -0.000 A 
ATOM     23  C   UNK A   2       5.756   5.035  31.715  0.00  0.00    -0.008 A 
ATOM     24  C   UNK A   2       4.521   5.211  31.105  0.00  0.00    -0.013 A 
ATOM     25  C   UNK A   2       4.332   6.265  30.222  0.00  0.00    -0.008 A 
ATOM     26  C   UNK A   2       5.381   7.138  29.952  0.00  0.00    -0.000 A 
ENDBRANCH  20  21
BRANCH  20  27
ATOM     27  C   UNK A   2       7.461   9.347  30.187  0.00  0.00    +0.072 C 
ATOM     28  O   UNK A   2       7.347   9.932  29.089  0.00  0.00    -0.564 OA
ATOM     29  O   UNK A   2       7.339   9.918  31.288  0.00  0.00    -0.564 OA
ENDBRANCH  20  27
ENDBRANCH  17  20
ENDBRANCH   1  16
BRANCH   1  30
ATOM     30  C   UNK A   1      10.611   5.264  27.920  0.00  0.00    +0.121 C 
BRANCH  30  31
ATOM     31  S   UNK A   1      10.740   4.266  26.445  0.00  0.00    -0.142 S 
BRANCH  31  32
ATOM     32  C   UNK A   1       9.053   3.633  26.337  0.00  0.00    +0.135 C 
BRANCH  32  33
ATOM     33  C   UNK A   1       8.567   2.980  27.604  0.00  0.00    -0.033 A 
ATOM     34  C   UNK A   1       9.243   1.891  28.150  0.00  0.00    -0.004 A 
ATOM     35  C   UNK A   1       8.793   1.287  29.326  0.00  0.00    -0.009 A 
ATOM     36  C   UNK A   1       7.657   1.773  29.961  0.00  0.00    -0.013 A 
ATOM     37  C   UNK A   1       6.973   2.861  29.423  0.00  0.00    -0.009 A 
ATOM     38  C   UNK A   1       7.430   3.456  28.251  0.00  0.00    -0.004 A 
ENDBRANCH  32  33
ENDBRANCH  31  32
ENDBRANCH  30  31
ENDBRANCH   1  30
TORSDOF 14
ENDMDL
