MODEL 1
REMARK VINA RESULT:   -18.681      0.000      0.000
REMARK ITER + INTRA:          -22.021
REMARK INTER:                 -19.874
REMARK INTRA:                  -2.147
REMARK CONF_INDEPENDENT:        1.193
REMARK UNBOUND:                 2.147
REMARK  2 active torsions:
REMARK  status: ('A' for Active; 'I' for Inactive)
REMARK    1  A    between atoms: CAL_7  and  CAH_8 
REMARK    2  A    between atoms: NAI_19  and  CAK_20 
ROOT
HETATM    1  CAH P59 A 201     -18.449  17.589 129.522  1.00 22.72     0.230 C 
HETATM    2  NAG P59 A 201     -19.362  18.763 129.592  1.00 20.91    -0.363 N 
ATOM      3  HAG P59 A 201     -19.275  19.444 130.347  1.00  0.00     0.162 HD
HETATM    4  CAE P59 A 201     -20.328  18.913 128.614  1.00 20.12     0.045 A 
HETATM    5  CAD P59 A 201     -21.405  19.739 128.851  1.00 20.63     0.030 A 
HETATM    6  CAC P59 A 201     -22.395  19.917 127.880  1.00 21.37     0.002 A 
HETATM    7  CAB P59 A 201     -22.252  19.260 126.681  1.00 23.94     0.001 A 
HETATM    8  CAA P59 A 201     -21.155  18.415 126.433  1.00 23.01     0.019 A 
HETATM    9  CAF P59 A 201     -20.207  18.210 127.416  1.00 23.66     0.059 A 
HETATM   10  CAJ P59 A 201     -19.048  17.475 127.155  1.00 25.37     0.262 C 
HETATM   11  OAM P59 A 201     -18.703  17.215 125.987  1.00 28.44    -0.267 OA
HETATM   12  NAI P59 A 201     -18.137  17.267 128.115  1.00 23.34    -0.288 N 
ENDROOT
BRANCH   1  13
HETATM   13  CAL P59 A 201     -19.028  16.443 130.116  1.00 21.79     0.023 A 
HETATM   14  CAW P59 A 201     -20.206  15.801 129.678  1.00 22.56     0.014 A 
HETATM   15  CAV P59 A 201     -20.705  14.664 130.351  1.00 22.43     0.001 A 
HETATM   16  CAU P59 A 201     -20.004  14.110 131.421  1.00 20.74     0.003 A 
HETATM   17  CAT P59 A 201     -18.844  14.739 131.837  1.00 22.12     0.043 A 
HETATM   18  CAS P59 A 201     -18.363  15.873 131.193  1.00 24.35     0.126 A 
HETATM   19  FAX P59 A 201     -17.280  16.416 131.582  1.00 27.37    -0.205 F 
ENDBRANCH   1  13
BRANCH  12  20
HETATM   20  CAK P59 A 201     -16.910  16.828 127.792  1.00 27.04     0.040 A 
HETATM   21  CAN P59 A 201     -15.902  17.809 127.747  1.00 25.91     0.030 A 
HETATM   22  CAO P59 A 201     -14.585  17.501 127.461  1.00 28.35     0.002 A 
HETATM   23  CAP P59 A 201     -14.253  16.197 127.155  1.00 31.73     0.000 A 
HETATM   24  CAQ P59 A 201     -15.243  15.207 127.154  1.00 37.83     0.002 A 
HETATM   25  CAR P59 A 201     -16.584  15.521 127.478  1.00 36.33     0.030 A 
ENDBRANCH  12  20
TORSDOF 2
REMARK  2 active torsions:
REMARK  status: ('A' for Active; 'I' for Inactive)
REMARK    1  A    between atoms: CAL_7  and  CAH_8 
REMARK    2  A    between atoms: NAI_19  and  CAK_20 
ROOT
HETATM    1  CAH P69 A 202     -11.302  13.476 131.465  1.00 42.53     0.230 C 
HETATM    2  NAG P69 A 202     -10.556  12.458 130.611  1.00 43.84    -0.363 N 
ATOM      3  HAG P69 A 202     -10.087  11.647 131.016  1.00  0.00     0.162 HD
HETATM    4  CAE P69 A 202     -10.556  12.708 129.232  1.00 37.67     0.045 A 
HETATM    5  CAD P69 A 202     -10.550  11.673 128.328  1.00 38.61     0.030 A 
HETATM    6  CAC P69 A 202     -10.586  11.919 126.955  1.00 33.75     0.002 A 
HETATM    7  CAB P69 A 202     -10.644  13.216 126.525  1.00 30.37     0.001 A 
HETATM    8  CAA P69 A 202     -10.675  14.260 127.445  1.00 33.11     0.019 A 
HETATM    9  CAF P69 A 202     -10.693  14.015 128.808  1.00 31.43     0.059 A 
HETATM   10  CAJ P69 A 202     -10.560  15.008 129.759  1.00 33.48     0.262 C 
HETATM   11  OAM P69 A 202      -9.921  16.004 129.463  1.00 40.02    -0.267 OA
HETATM   12  NAI P69 A 202     -10.684  14.774 131.082  1.00 37.68    -0.288 N 
ENDROOT
BRANCH   1  13
HETATM   13  CAL P69 A 202     -12.738  13.588 131.308  1.00 44.55     0.023 A 
HETATM   14  CAW P69 A 202     -13.372  13.601 130.049  1.00 43.30     0.014 A 
HETATM   15  CAV P69 A 202     -14.744  13.734 129.937  1.00 45.97     0.001 A 
HETATM   16  CAU P69 A 202     -15.529  13.899 131.074  1.00 47.53     0.003 A 
HETATM   17  CAT P69 A 202     -14.934  13.893 132.323  1.00 43.52     0.043 A 
HETATM   18  CAS P69 A 202     -13.553  13.743 132.437  1.00 47.42     0.126 A 
HETATM   19  FAX P69 A 202     -12.998  13.761 133.692  1.00 42.07    -0.205 F 
ENDBRANCH   1  13
BRANCH  12  20
HETATM   20  CAK P69 A 202     -10.247  15.615 132.041  1.00 33.46     0.040 A 
HETATM   21  CAN P69 A 202     -11.073  15.999 133.095  1.00 35.03     0.030 A 
HETATM   22  CAO P69 A 202     -10.556  16.808 134.119  1.00 34.10     0.002 A 
HETATM   23  CAP P69 A 202      -9.218  17.256 134.095  1.00 33.51     0.000 A 
HETATM   24  CAQ P69 A 202      -8.386  16.845 133.059  1.00 30.23     0.002 A 
HETATM   25  CAR P69 A 202      -8.903  16.019 132.063  1.00 30.63     0.030 A 
ENDBRANCH  12  20
TORSDOF 2
ENDMDL
MODEL 2
REMARK VINA RESULT:   -18.452      1.585      3.300
REMARK ITER + INTRA:          -21.723
REMARK INTER:                 -19.645
REMARK INTRA:                  -2.078
REMARK CONF_INDEPENDENT:        1.193
REMARK UNBOUND:                 2.078
REMARK  2 active torsions:
REMARK  status: ('A' for Active; 'I' for Inactive)
REMARK    1  A    between atoms: CAL_7  and  CAH_8 
REMARK    2  A    between atoms: NAI_19  and  CAK_20 
ROOT
HETATM    1  CAH P59 A 201     -18.832  17.781 129.213  1.00 22.72     0.230 C 
HETATM    2  NAG P59 A 201     -19.743  18.958 129.242  1.00 20.91    -0.363 N 
ATOM      3  HAG P59 A 201     -19.659  19.663 129.975  1.00  0.00     0.162 HD
HETATM    4  CAE P59 A 201     -20.707  19.078 128.256  1.00 20.12     0.045 A 
HETATM    5  CAD P59 A 201     -21.783  19.911 128.462  1.00 20.63     0.030 A 
HETATM    6  CAC P59 A 201     -22.769  20.059 127.482  1.00 21.37     0.002 A 
HETATM    7  CAB P59 A 201     -22.623  19.364 126.306  1.00 23.94     0.001 A 
HETATM    8  CAA P59 A 201     -21.525  18.510 126.089  1.00 23.01     0.019 A 
HETATM    9  CAF P59 A 201     -20.582  18.336 127.082  1.00 23.66     0.059 A 
HETATM   10  CAJ P59 A 201     -19.422  17.592 126.849  1.00 25.37     0.262 C 
HETATM   11  OAM P59 A 201     -19.073  17.294 125.691  1.00 28.44    -0.267 OA
HETATM   12  NAI P59 A 201     -18.515  17.414 127.819  1.00 23.34    -0.288 N 
ENDROOT
BRANCH   1  13
HETATM   13  CAL P59 A 201     -19.415  16.656 129.842  1.00 21.79     0.023 A 
HETATM   14  CAW P59 A 201     -19.991  15.553 129.175  1.00 22.56     0.014 A 
HETATM   15  CAV P59 A 201     -20.555  14.481 129.901  1.00 22.43     0.001 A 
HETATM   16  CAU P59 A 201     -20.490  14.457 131.294  1.00 20.74     0.003 A 
HETATM   17  CAT P59 A 201     -19.913  15.537 131.939  1.00 22.12     0.043 A 
HETATM   18  CAS P59 A 201     -19.379  16.606 131.229  1.00 24.35     0.126 A 
HETATM   19  FAX P59 A 201     -18.832  17.573 131.848  1.00 27.37    -0.205 F 
ENDBRANCH   1  13
BRANCH  12  20
HETATM   20  CAK P59 A 201     -17.287  16.964 127.514  1.00 27.04     0.040 A 
HETATM   21  CAN P59 A 201     -16.347  17.948 127.155  1.00 25.91     0.030 A 
HETATM   22  CAO P59 A 201     -15.035  17.637 126.848  1.00 28.35     0.002 A 
HETATM   23  CAP P59 A 201     -14.644  16.314 126.839  1.00 31.73     0.000 A 
HETATM   24  CAQ P59 A 201     -15.569  15.311 127.154  1.00 37.83     0.002 A 
HETATM   25  CAR P59 A 201     -16.902  15.635 127.499  1.00 36.33     0.030 A 
ENDBRANCH  12  20
TORSDOF 2
REMARK  2 active torsions:
REMARK  status: ('A' for Active; 'I' for Inactive)
REMARK    1  A    between atoms: CAL_7  and  CAH_8 
REMARK    2  A    between atoms: NAI_19  and  CAK_20 
ROOT
HETATM    1  CAH P69 A 202     -12.162  15.537 130.072  1.00 42.53     0.230 C 
HETATM    2  NAG P69 A 202     -13.611  16.000 130.167  1.00 43.84    -0.363 N 
ATOM      3  HAG P69 A 202     -13.931  16.873 129.746  1.00  0.00     0.162 HD
HETATM    4  CAE P69 A 202     -14.475  15.149 130.870  1.00 37.67     0.045 A 
HETATM    5  CAD P69 A 202     -15.797  15.037 130.513  1.00 38.61     0.030 A 
HETATM    6  CAC P69 A 202     -16.651  14.164 131.189  1.00 33.75     0.002 A 
HETATM    7  CAB P69 A 202     -16.139  13.407 132.207  1.00 30.37     0.001 A 
HETATM    8  CAA P69 A 202     -14.794  13.507 132.547  1.00 33.11     0.019 A 
HETATM    9  CAF P69 A 202     -13.934  14.333 131.843  1.00 31.43     0.059 A 
HETATM   10  CAJ P69 A 202     -12.636  14.591 132.238  1.00 33.48     0.262 C 
HETATM   11  OAM P69 A 202     -12.379  14.541 133.430  1.00 40.02    -0.267 OA
HETATM   12  NAI P69 A 202     -11.774  15.312 131.492  1.00 37.68    -0.288 N 
ENDROOT
BRANCH   1  13
HETATM   13  CAL P69 A 202     -11.871  14.332 129.322  1.00 44.55     0.023 A 
HETATM   14  CAW P69 A 202     -11.596  13.094 129.936  1.00 43.30     0.014 A 
HETATM   15  CAV P69 A 202     -11.299  11.971 129.186  1.00 45.97     0.001 A 
HETATM   16  CAU P69 A 202     -11.225  12.051 127.799  1.00 47.53     0.003 A 
HETATM   17  CAT P69 A 202     -11.487  13.254 127.169  1.00 43.52     0.043 A 
HETATM   18  CAS P69 A 202     -11.803  14.383 127.923  1.00 47.42     0.126 A 
HETATM   19  FAX P69 A 202     -12.038  15.563 127.262  1.00 42.07    -0.205 F 
ENDBRANCH   1  13
BRANCH  12  20
HETATM   20  CAK P69 A 202     -10.637  15.858 131.968  1.00 33.46     0.040 A 
HETATM   21  CAN P69 A 202      -9.456  15.824 131.230  1.00 35.03     0.030 A 
HETATM   22  CAO P69 A 202      -8.315  16.477 131.721  1.00 34.10     0.002 A 
HETATM   23  CAP P69 A 202      -8.334  17.155 132.959  1.00 33.51     0.000 A 
HETATM   24  CAQ P69 A 202      -9.522  17.215 133.679  1.00 30.23     0.002 A 
HETATM   25  CAR P69 A 202     -10.656  16.587 133.167  1.00 30.63     0.030 A 
ENDBRANCH  12  20
TORSDOF 2
ENDMDL
MODEL 3
REMARK VINA RESULT:   -18.144      1.418      3.317
REMARK ITER + INTRA:          -21.515
REMARK INTER:                 -19.337
REMARK INTRA:                  -2.178
REMARK CONF_INDEPENDENT:        1.193
REMARK UNBOUND:                 2.178
REMARK  2 active torsions:
REMARK  status: ('A' for Active; 'I' for Inactive)
REMARK    1  A    between atoms: CAL_7  and  CAH_8 
REMARK    2  A    between atoms: NAI_19  and  CAK_20 
ROOT
HETATM    1  CAH P59 A 201     -18.960  16.295 127.576  1.00 22.72     0.230 C 
HETATM    2  NAG P59 A 201     -19.662  15.132 128.184  1.00 20.91    -0.363 N 
ATOM      3  HAG P59 A 201     -20.157  14.459 127.597  1.00  0.00     0.162 HD
HETATM    4  CAE P59 A 201     -19.632  14.980 129.559  1.00 20.12     0.045 A 
HETATM    5  CAD P59 A 201     -20.563  14.170 130.169  1.00 20.63     0.030 A 
HETATM    6  CAC P59 A 201     -20.555  13.991 131.555  1.00 21.37     0.002 A 
HETATM    7  CAB P59 A 201     -19.582  14.631 132.285  1.00 23.94     0.001 A 
HETATM    8  CAA P59 A 201     -18.628  15.461 131.668  1.00 23.01     0.019 A 
HETATM    9  CAF P59 A 201     -18.675  15.668 130.304  1.00 23.66     0.059 A 
HETATM   10  CAJ P59 A 201     -17.670  16.387 129.651  1.00 25.37     0.262 C 
HETATM   11  OAM P59 A 201     -16.586  16.629 130.214  1.00 28.44    -0.267 OA
HETATM   12  NAI P59 A 201     -17.725  16.596 128.328  1.00 23.34    -0.288 N 
ENDROOT
BRANCH   1  13
HETATM   13  CAL P59 A 201     -19.771  17.454 127.581  1.00 21.79     0.023 A 
HETATM   14  CAW P59 A 201     -20.128  18.198 128.726  1.00 22.56     0.014 A 
HETATM   15  CAV P59 A 201     -20.953  19.340 128.621  1.00 22.43     0.001 A 
HETATM   16  CAU P59 A 201     -21.374  19.796 127.372  1.00 20.74     0.003 A 
HETATM   17  CAT P59 A 201     -21.010  19.067 126.254  1.00 22.12     0.043 A 
HETATM   18  CAS P59 A 201     -20.218  17.929 126.356  1.00 24.35     0.126 A 
HETATM   19  FAX P59 A 201     -19.878  17.294 125.308  1.00 27.37    -0.205 F 
ENDBRANCH   1  13
BRANCH  12  20
HETATM   20  CAK P59 A 201     -16.634  17.018 127.670  1.00 27.04     0.040 A 
HETATM   21  CAN P59 A 201     -15.666  16.033 127.396  1.00 25.91     0.030 A 
HETATM   22  CAO P59 A 201     -14.507  16.313 126.698  1.00 28.35     0.002 A 
HETATM   23  CAP P59 A 201     -14.259  17.610 126.300  1.00 31.73     0.000 A 
HETATM   24  CAQ P59 A 201     -15.187  18.618 126.593  1.00 37.83     0.002 A 
HETATM   25  CAR P59 A 201     -16.387  18.323 127.281  1.00 36.33     0.030 A 
ENDBRANCH  12  20
TORSDOF 2
REMARK  2 active torsions:
REMARK  status: ('A' for Active; 'I' for Inactive)
REMARK    1  A    between atoms: CAL_7  and  CAH_8 
REMARK    2  A    between atoms: NAI_19  and  CAK_20 
ROOT
HETATM    1  CAH P69 A 202     -11.439  13.427 131.317  1.00 42.53     0.230 C 
HETATM    2  NAG P69 A 202     -10.640  12.425 130.493  1.00 43.84    -0.363 N 
ATOM      3  HAG P69 A 202     -10.186  11.614 130.914  1.00  0.00     0.162 HD
HETATM    4  CAE P69 A 202     -10.568  12.691 129.119  1.00 37.67     0.045 A 
HETATM    5  CAD P69 A 202     -10.505  11.666 128.206  1.00 38.61     0.030 A 
HETATM    6  CAC P69 A 202     -10.469  11.926 126.835  1.00 33.75     0.002 A 
HETATM    7  CAB P69 A 202     -10.516  13.228 126.416  1.00 30.37     0.001 A 
HETATM    8  CAA P69 A 202     -10.605  14.261 127.345  1.00 33.11     0.019 A 
HETATM    9  CAF P69 A 202     -10.694  14.001 128.702  1.00 31.43     0.059 A 
HETATM   10  CAJ P69 A 202     -10.620  14.984 129.669  1.00 33.48     0.262 C 
HETATM   11  OAM P69 A 202      -9.975  15.988 129.418  1.00 40.02    -0.267 OA
HETATM   12  NAI P69 A 202     -10.812  14.735 130.981  1.00 37.68    -0.288 N 
ENDROOT
BRANCH   1  13
HETATM   13  CAL P69 A 202     -12.865  13.529 131.084  1.00 44.55     0.023 A 
HETATM   14  CAW P69 A 202     -13.433  13.524 129.795  1.00 43.30     0.014 A 
HETATM   15  CAV P69 A 202     -14.798  13.648 129.610  1.00 45.97     0.001 A 
HETATM   16  CAU P69 A 202     -15.642  13.822 130.702  1.00 47.53     0.003 A 
HETATM   17  CAT P69 A 202     -15.112  13.836 131.980  1.00 43.52     0.043 A 
HETATM   18  CAS P69 A 202     -13.738  13.695 132.168  1.00 47.42     0.126 A 
HETATM   19  FAX P69 A 202     -13.248  13.731 133.450  1.00 42.07    -0.205 F 
ENDBRANCH   1  13
BRANCH  12  20
HETATM   20  CAK P69 A 202     -10.434  15.569 131.971  1.00 33.46     0.040 A 
HETATM   21  CAN P69 A 202     -11.354  16.048 132.901  1.00 35.03     0.030 A 
HETATM   22  CAO P69 A 202     -10.908  16.846 133.966  1.00 34.10     0.002 A 
HETATM   23  CAP P69 A 202      -9.545  17.187 134.106  1.00 33.51     0.000 A 
HETATM   24  CAQ P69 A 202      -8.625  16.681 133.196  1.00 30.23     0.002 A 
HETATM   25  CAR P69 A 202      -9.076  15.867 132.158  1.00 30.63     0.030 A 
ENDBRANCH  12  20
TORSDOF 2
ENDMDL
MODEL 4
REMARK VINA RESULT:   -17.892      1.501      4.041
REMARK ITER + INTRA:          -21.365
REMARK INTER:                 -19.085
REMARK INTRA:                  -2.280
REMARK CONF_INDEPENDENT:        1.193
REMARK UNBOUND:                 2.280
REMARK  2 active torsions:
REMARK  status: ('A' for Active; 'I' for Inactive)
REMARK    1  A    between atoms: CAL_7  and  CAH_8 
REMARK    2  A    between atoms: NAI_19  and  CAK_20 
ROOT
HETATM    1  CAH P59 A 201     -19.145  18.223 129.165  1.00 22.72     0.230 C 
HETATM    2  NAG P59 A 201     -20.114  19.353 129.171  1.00 20.91    -0.363 N 
ATOM      3  HAG P59 A 201     -20.048  20.090 129.874  1.00  0.00     0.162 HD
HETATM    4  CAE P59 A 201     -21.105  19.385 128.206  1.00 20.12     0.045 A 
HETATM    5  CAD P59 A 201     -22.217  20.171 128.407  1.00 20.63     0.030 A 
HETATM    6  CAC P59 A 201     -23.232  20.230 127.448  1.00 21.37     0.002 A 
HETATM    7  CAB P59 A 201     -23.078  19.497 126.296  1.00 23.94     0.001 A 
HETATM    8  CAA P59 A 201     -21.944  18.691 126.085  1.00 23.01     0.019 A 
HETATM    9  CAF P59 A 201     -20.970  18.604 127.059  1.00 23.66     0.059 A 
HETATM   10  CAJ P59 A 201     -19.780  17.910 126.826  1.00 25.37     0.262 C 
HETATM   11  OAM P59 A 201     -19.443  17.584 125.672  1.00 28.44    -0.267 OA
HETATM   12  NAI P59 A 201     -18.842  17.817 127.778  1.00 23.34    -0.288 N 
ENDROOT
BRANCH   1  13
HETATM   13  CAL P59 A 201     -19.655  17.096 129.852  1.00 21.79     0.023 A 
HETATM   14  CAW P59 A 201     -20.188  15.940 129.243  1.00 22.56     0.014 A 
HETATM   15  CAV P59 A 201     -20.680  14.871 130.024  1.00 22.43     0.001 A 
HETATM   16  CAU P59 A 201     -20.583  14.907 131.415  1.00 20.74     0.003 A 
HETATM   17  CAT P59 A 201     -20.048  16.039 132.003  1.00 22.12     0.043 A 
HETATM   18  CAS P59 A 201     -19.585  17.104 131.239  1.00 24.35     0.126 A 
HETATM   19  FAX P59 A 201     -19.075  18.121 131.806  1.00 27.37    -0.205 F 
ENDBRANCH   1  13
BRANCH  12  20
HETATM   20  CAK P59 A 201     -17.601  17.416 127.461  1.00 27.04     0.040 A 
HETATM   21  CAN P59 A 201     -17.458  16.048 127.161  1.00 25.91     0.030 A 
HETATM   22  CAO P59 A 201     -16.247  15.498 126.785  1.00 28.35     0.002 A 
HETATM   23  CAP P59 A 201     -15.126  16.302 126.753  1.00 31.73     0.000 A 
HETATM   24  CAQ P59 A 201     -15.231  17.659 127.083  1.00 37.83     0.002 A 
HETATM   25  CAR P59 A 201     -16.479  18.225 127.438  1.00 36.33     0.030 A 
ENDBRANCH  12  20
TORSDOF 2
REMARK  2 active torsions:
REMARK  status: ('A' for Active; 'I' for Inactive)
REMARK    1  A    between atoms: CAL_7  and  CAH_8 
REMARK    2  A    between atoms: NAI_19  and  CAK_20 
ROOT
HETATM    1  CAH P69 A 202     -12.255  13.329 131.301  1.00 42.53     0.230 C 
HETATM    2  NAG P69 A 202     -13.625  12.891 131.804  1.00 43.84    -0.363 N 
ATOM      3  HAG P69 A 202     -13.756  12.047 132.362  1.00  0.00     0.162 HD
HETATM    4  CAE P69 A 202     -14.695  13.725 131.450  1.00 37.67     0.045 A 
HETATM    5  CAD P69 A 202     -15.773  13.881 132.287  1.00 38.61     0.030 A 
HETATM    6  CAC P69 A 202     -16.823  14.738 131.953  1.00 33.75     0.002 A 
HETATM    7  CAB P69 A 202     -16.750  15.434 130.778  1.00 30.37     0.001 A 
HETATM    8  CAA P69 A 202     -15.644  15.291 129.946  1.00 33.11     0.019 A 
HETATM    9  CAF P69 A 202     -14.577  14.482 130.301  1.00 31.43     0.059 A 
HETATM   10  CAJ P69 A 202     -13.537  14.178 129.445  1.00 33.48     0.262 C 
HETATM   11  OAM P69 A 202     -13.765  14.166 128.247  1.00 40.02    -0.267 OA
HETATM   12  NAI P69 A 202     -12.452  13.477 129.833  1.00 37.68    -0.288 N 
ENDROOT
BRANCH   1  13
HETATM   13  CAL P69 A 202     -11.694  14.562 131.815  1.00 44.55     0.023 A 
HETATM   14  CAW P69 A 202     -12.426  15.462 132.615  1.00 43.30     0.014 A 
HETATM   15  CAV P69 A 202     -11.864  16.642 133.067  1.00 45.97     0.001 A 
HETATM   16  CAU P69 A 202     -10.565  16.986 132.704  1.00 47.53     0.003 A 
HETATM   17  CAT P69 A 202      -9.824  16.123 131.917  1.00 43.52     0.043 A 
HETATM   18  CAS P69 A 202     -10.384  14.926 131.474  1.00 47.42     0.126 A 
HETATM   19  FAX P69 A 202      -9.624  14.105 130.680  1.00 42.07    -0.205 F 
ENDBRANCH   1  13
BRANCH  12  20
HETATM   20  CAK P69 A 202     -11.591  12.885 128.981  1.00 33.46     0.040 A 
HETATM   21  CAN P69 A 202     -11.250  11.541 129.117  1.00 35.03     0.030 A 
HETATM   22  CAO P69 A 202     -10.417  10.939 128.161  1.00 34.10     0.002 A 
HETATM   23  CAP P69 A 202      -9.903  11.673 127.071  1.00 33.51     0.000 A 
HETATM   24  CAQ P69 A 202     -10.270  13.005 126.918  1.00 30.23     0.002 A 
HETATM   25  CAR P69 A 202     -11.121  13.584 127.858  1.00 30.63     0.030 A 
ENDBRANCH  12  20
TORSDOF 2
ENDMDL
MODEL 5
REMARK VINA RESULT:   -17.795      1.461      3.807
REMARK ITER + INTRA:          -21.096
REMARK INTER:                 -18.989
REMARK INTRA:                  -2.108
REMARK CONF_INDEPENDENT:        1.193
REMARK UNBOUND:                 2.108
REMARK  2 active torsions:
REMARK  status: ('A' for Active; 'I' for Inactive)
REMARK    1  A    between atoms: CAL_7  and  CAH_8 
REMARK    2  A    between atoms: NAI_19  and  CAK_20 
ROOT
HETATM    1  CAH P59 A 201     -18.795  17.762 129.208  1.00 22.72     0.230 C 
HETATM    2  NAG P59 A 201     -19.702  18.942 129.194  1.00 20.91    -0.363 N 
ATOM      3  HAG P59 A 201     -19.632  19.660 129.917  1.00  0.00     0.162 HD
HETATM    4  CAE P59 A 201     -20.640  19.049 128.183  1.00 20.12     0.045 A 
HETATM    5  CAD P59 A 201     -21.718  19.890 128.349  1.00 20.63     0.030 A 
HETATM    6  CAC P59 A 201     -22.680  20.025 127.343  1.00 21.37     0.002 A 
HETATM    7  CAB P59 A 201     -22.508  19.309 126.182  1.00 23.94     0.001 A 
HETATM    8  CAA P59 A 201     -21.409  18.448 126.007  1.00 23.01     0.019 A 
HETATM    9  CAF P59 A 201     -20.490  18.287 127.025  1.00 23.66     0.059 A 
HETATM   10  CAJ P59 A 201     -19.329  17.534 126.833  1.00 25.37     0.262 C 
HETATM   11  OAM P59 A 201     -18.953  17.215 125.689  1.00 28.44    -0.267 OA
HETATM   12  NAI P59 A 201     -18.446  17.370 127.828  1.00 23.34    -0.288 N 
ENDROOT
BRANCH   1  13
HETATM   13  CAL P59 A 201     -19.398  16.649 129.841  1.00 21.79     0.023 A 
HETATM   14  CAW P59 A 201     -19.954  15.534 129.180  1.00 22.56     0.014 A 
HETATM   15  CAV P59 A 201     -20.541  14.477 129.910  1.00 22.43     0.001 A 
HETATM   16  CAU P59 A 201     -20.519  14.482 131.304  1.00 20.74     0.003 A 
HETATM   17  CAT P59 A 201     -19.961  15.574 131.945  1.00 22.12     0.043 A 
HETATM   18  CAS P59 A 201     -19.405  16.628 131.230  1.00 24.35     0.126 A 
HETATM   19  FAX P59 A 201     -18.877  17.608 131.845  1.00 27.37    -0.205 F 
ENDBRANCH   1  13
BRANCH  12  20
HETATM   20  CAK P59 A 201     -17.213  16.909 127.561  1.00 27.04     0.040 A 
HETATM   21  CAN P59 A 201     -16.230  17.891 127.333  1.00 25.91     0.030 A 
HETATM   22  CAO P59 A 201     -14.910  17.567 127.079  1.00 28.35     0.002 A 
HETATM   23  CAP P59 A 201     -14.550  16.238 126.991  1.00 31.73     0.000 A 
HETATM   24  CAQ P59 A 201     -15.516  15.241 127.175  1.00 37.83     0.002 A 
HETATM   25  CAR P59 A 201     -16.859  15.575 127.466  1.00 36.33     0.030 A 
ENDBRANCH  12  20
TORSDOF 2
REMARK  2 active torsions:
REMARK  status: ('A' for Active; 'I' for Inactive)
REMARK    1  A    between atoms: CAL_7  and  CAH_8 
REMARK    2  A    between atoms: NAI_19  and  CAK_20 
ROOT
HETATM    1  CAH P69 A 202     -13.196  15.740 130.436  1.00 42.53     0.230 C 
HETATM    2  NAG P69 A 202     -12.565  16.957 131.102  1.00 43.84    -0.363 N 
ATOM      3  HAG P69 A 202     -12.714  17.905 130.755  1.00  0.00     0.162 HD
HETATM    4  CAE P69 A 202     -11.768  16.689 132.223  1.00 37.67     0.045 A 
HETATM    5  CAD P69 A 202     -11.692  17.584 133.263  1.00 38.61     0.030 A 
HETATM    6  CAC P69 A 202     -10.927  17.304 134.397  1.00 33.75     0.002 A 
HETATM    7  CAB P69 A 202     -10.265  16.109 134.459  1.00 30.37     0.001 A 
HETATM    8  CAA P69 A 202     -10.366  15.196 133.414  1.00 33.11     0.019 A 
HETATM    9  CAF P69 A 202     -11.167  15.449 132.313  1.00 31.43     0.059 A 
HETATM   10  CAJ P69 A 202     -11.176  14.657 131.182  1.00 33.48     0.262 C 
HETATM   11  OAM P69 A 202     -10.156  14.050 130.899  1.00 40.02    -0.267 OA
HETATM   12  NAI P69 A 202     -12.033  14.852 130.160  1.00 37.68    -0.288 N 
ENDROOT
BRANCH   1  13
HETATM   13  CAL P69 A 202     -14.184  14.983 131.177  1.00 44.55     0.023 A 
HETATM   14  CAW P69 A 202     -13.852  13.891 132.003  1.00 43.30     0.014 A 
HETATM   15  CAV P69 A 202     -14.826  13.176 132.677  1.00 45.97     0.001 A 
HETATM   16  CAU P69 A 202     -16.170  13.501 132.519  1.00 47.53     0.003 A 
HETATM   17  CAT P69 A 202     -16.526  14.567 131.712  1.00 43.52     0.043 A 
HETATM   18  CAS P69 A 202     -15.544  15.297 131.045  1.00 47.42     0.126 A 
HETATM   19  FAX P69 A 202     -15.938  16.335 130.239  1.00 42.07    -0.205 F 
ENDBRANCH   1  13
BRANCH  12  20
HETATM   20  CAK P69 A 202     -11.868  14.332 128.926  1.00 33.46     0.040 A 
HETATM   21  CAN P69 A 202     -10.732  14.613 128.171  1.00 35.03     0.030 A 
HETATM   22  CAO P69 A 202     -10.556  13.988 126.927  1.00 34.10     0.002 A 
HETATM   23  CAP P69 A 202     -11.518  13.089 126.416  1.00 33.51     0.000 A 
HETATM   24  CAQ P69 A 202     -12.635  12.785 127.185  1.00 30.23     0.002 A 
HETATM   25  CAR P69 A 202     -12.784  13.391 128.432  1.00 30.63     0.030 A 
ENDBRANCH  12  20
TORSDOF 2
ENDMDL
MODEL 6
REMARK VINA RESULT:   -17.774      1.611      9.282
REMARK ITER + INTRA:          -21.430
REMARK INTER:                 -18.967
REMARK INTRA:                  -2.463
REMARK CONF_INDEPENDENT:        1.193
REMARK UNBOUND:                 2.463
REMARK  2 active torsions:
REMARK  status: ('A' for Active; 'I' for Inactive)
REMARK    1  A    between atoms: CAL_7  and  CAH_8 
REMARK    2  A    between atoms: NAI_19  and  CAK_20 
ROOT
HETATM    1  CAH P59 A 201     -12.040  13.310 131.033  1.00 22.72     0.230 C 
HETATM    2  NAG P59 A 201     -11.375  12.113 130.448  1.00 20.91    -0.363 N 
ATOM      3  HAG P59 A 201     -11.147  11.308 131.032  1.00  0.00     0.162 HD
HETATM    4  CAE P59 A 201     -11.072  12.114 129.098  1.00 20.12     0.045 A 
HETATM    5  CAD P59 A 201     -10.138  11.224 128.616  1.00 20.63     0.030 A 
HETATM    6  CAC P59 A 201      -9.816  11.196 127.256  1.00 21.37     0.002 A 
HETATM    7  CAB P59 A 201     -10.468  12.066 126.416  1.00 23.94     0.001 A 
HETATM    8  CAA P59 A 201     -11.423  12.978 126.903  1.00 23.01     0.019 A 
HETATM    9  CAF P59 A 201     -11.700  13.030 128.255  1.00 23.66     0.059 A 
HETATM   10  CAJ P59 A 201     -12.728  13.838 128.748  1.00 25.37     0.262 C 
HETATM   11  OAM P59 A 201     -13.586  14.320 127.985  1.00 28.44    -0.267 OA
HETATM   12  NAI P59 A 201     -12.985  13.895 130.062  1.00 23.34    -0.288 N 
ENDROOT
BRANCH   1  13
HETATM   13  CAL P59 A 201     -11.100  14.307 131.388  1.00 21.79     0.023 A 
HETATM   14  CAW P59 A 201     -10.019  14.733 130.588  1.00 22.56     0.014 A 
HETATM   15  CAV P59 A 201      -9.131  15.733 131.042  1.00 22.43     0.001 A 
HETATM   16  CAU P59 A 201      -9.349  16.371 132.263  1.00 20.74     0.003 A 
HETATM   17  CAT P59 A 201     -10.419  15.955 133.035  1.00 22.12     0.043 A 
HETATM   18  CAS P59 A 201     -11.280  14.954 132.603  1.00 24.35     0.126 A 
HETATM   19  FAX P59 A 201     -12.270  14.609 133.323  1.00 27.37    -0.205 F 
ENDBRANCH   1  13
BRANCH  12  20
HETATM   20  CAK P59 A 201     -14.139  14.427 130.496  1.00 27.04     0.040 A 
HETATM   21  CAN P59 A 201     -15.207  13.523 130.654  1.00 25.91     0.030 A 
HETATM   22  CAO P59 A 201     -16.444  13.920 131.125  1.00 28.35     0.002 A 
HETATM   23  CAP P59 A 201     -16.661  15.255 131.400  1.00 31.73     0.000 A 
HETATM   24  CAQ P59 A 201     -15.628  16.182 131.215  1.00 37.83     0.002 A 
HETATM   25  CAR P59 A 201     -14.353  15.768 130.763  1.00 36.33     0.030 A 
ENDBRANCH  12  20
TORSDOF 2
REMARK  2 active torsions:
REMARK  status: ('A' for Active; 'I' for Inactive)
REMARK    1  A    between atoms: CAL_7  and  CAH_8 
REMARK    2  A    between atoms: NAI_19  and  CAK_20 
ROOT
HETATM    1  CAH P69 A 202     -18.529  18.187 128.894  1.00 42.53     0.230 C 
HETATM    2  NAG P69 A 202     -18.785  17.795 130.344  1.00 43.84    -0.363 N 
ATOM      3  HAG P69 A 202     -18.467  18.368 131.126  1.00  0.00     0.162 HD
HETATM    4  CAE P69 A 202     -19.487  16.597 130.533  1.00 37.67     0.045 A 
HETATM    5  CAD P69 A 202     -20.336  16.438 131.603  1.00 38.61     0.030 A 
HETATM    6  CAC P69 A 202     -21.062  15.259 131.774  1.00 33.75     0.002 A 
HETATM    7  CAB P69 A 202     -20.925  14.266 130.843  1.00 30.37     0.001 A 
HETATM    8  CAA P69 A 202     -20.083  14.442 129.749  1.00 33.11     0.019 A 
HETATM    9  CAF P69 A 202     -19.403  15.631 129.550  1.00 31.43     0.059 A 
HETATM   10  CAJ P69 A 202     -18.437  15.799 128.577  1.00 33.48     0.262 C 
HETATM   11  OAM P69 A 202     -17.796  14.820 128.231  1.00 40.02    -0.267 OA
HETATM   12  NAI P69 A 202     -17.855  16.989 128.323  1.00 37.68    -0.288 N 
ENDROOT
BRANCH   1  13
HETATM   13  CAL P69 A 202     -19.666  18.515 128.057  1.00 44.55     0.023 A 
HETATM   14  CAW P69 A 202     -19.865  17.955 126.780  1.00 43.30     0.014 A 
HETATM   15  CAV P69 A 202     -20.950  18.311 126.000  1.00 45.97     0.001 A 
HETATM   16  CAU P69 A 202     -21.854  19.268 126.449  1.00 47.53     0.003 A 
HETATM   17  CAT P69 A 202     -21.682  19.838 127.698  1.00 43.52     0.043 A 
HETATM   18  CAS P69 A 202     -20.598  19.468 128.492  1.00 47.42     0.126 A 
HETATM   19  FAX P69 A 202     -20.451  20.069 129.717  1.00 42.07    -0.205 F 
ENDBRANCH   1  13
BRANCH  12  20
HETATM   20  CAK P69 A 202     -16.704  17.135 127.635  1.00 33.46     0.040 A 
HETATM   21  CAN P69 A 202     -16.664  16.972 126.252  1.00 35.03     0.030 A 
HETATM   22  CAO P69 A 202     -15.467  17.215 125.561  1.00 34.10     0.002 A 
HETATM   23  CAP P69 A 202     -14.294  17.606 126.242  1.00 33.51     0.000 A 
HETATM   24  CAQ P69 A 202     -14.344  17.799 127.618  1.00 30.23     0.002 A 
HETATM   25  CAR P69 A 202     -15.546  17.582 128.289  1.00 30.63     0.030 A 
ENDBRANCH  12  20
TORSDOF 2
ENDMDL
MODEL 7
REMARK VINA RESULT:   -17.633      1.623      9.153
REMARK ITER + INTRA:          -21.201
REMARK INTER:                 -18.826
REMARK INTRA:                  -2.374
REMARK CONF_INDEPENDENT:        1.193
REMARK UNBOUND:                 2.374
REMARK  2 active torsions:
REMARK  status: ('A' for Active; 'I' for Inactive)
REMARK    1  A    between atoms: CAL_7  and  CAH_8 
REMARK    2  A    between atoms: NAI_19  and  CAK_20 
ROOT
HETATM    1  CAH P59 A 201     -11.749  15.510 129.655  1.00 22.72     0.230 C 
HETATM    2  NAG P59 A 201     -11.379  14.974 128.317  1.00 20.91    -0.363 N 
ATOM      3  HAG P59 A 201     -11.324  15.592 127.506  1.00  0.00     0.162 HD
HETATM    4  CAE P59 A 201     -11.113  13.622 128.192  1.00 20.12     0.045 A 
HETATM    5  CAD P59 A 201     -11.150  13.039 126.945  1.00 20.63     0.030 A 
HETATM    6  CAC P59 A 201     -10.879  11.677 126.785  1.00 21.37     0.002 A 
HETATM    7  CAB P59 A 201     -10.557  10.945 127.903  1.00 23.94     0.001 A 
HETATM    8  CAA P59 A 201     -10.517  11.535 129.180  1.00 23.01     0.019 A 
HETATM    9  CAF P59 A 201     -10.832  12.870 129.332  1.00 23.66     0.059 A 
HETATM   10  CAJ P59 A 201     -10.683  13.508 130.567  1.00 25.37     0.262 C 
HETATM   11  OAM P59 A 201     -10.022  12.984 131.483  1.00 28.44    -0.267 OA
HETATM   12  NAI P59 A 201     -11.003  14.801 130.714  1.00 23.34    -0.288 N 
ENDROOT
BRANCH   1  13
HETATM   13  CAL P59 A 201     -13.132  15.357 129.914  1.00 21.79     0.023 A 
HETATM   14  CAW P59 A 201     -13.974  14.396 129.316  1.00 22.56     0.014 A 
HETATM   15  CAV P59 A 201     -15.347  14.333 129.640  1.00 22.43     0.001 A 
HETATM   16  CAU P59 A 201     -15.884  15.176 130.613  1.00 20.74     0.003 A 
HETATM   17  CAT P59 A 201     -15.048  16.107 131.203  1.00 22.12     0.043 A 
HETATM   18  CAS P59 A 201     -13.702  16.188 130.869  1.00 24.35     0.126 A 
HETATM   19  FAX P59 A 201     -12.951  17.038 131.447  1.00 27.37    -0.205 F 
ENDBRANCH   1  13
BRANCH  12  20
HETATM   20  CAK P59 A 201     -10.586  15.476 131.797  1.00 27.04     0.040 A 
HETATM   21  CAN P59 A 201      -9.512  16.362 131.589  1.00 25.91     0.030 A 
HETATM   22  CAO P59 A 201      -8.997  17.147 132.604  1.00 28.35     0.002 A 
HETATM   23  CAP P59 A 201      -9.515  17.023 133.876  1.00 31.73     0.000 A 
HETATM   24  CAQ P59 A 201     -10.558  16.122 134.120  1.00 37.83     0.002 A 
HETATM   25  CAR P59 A 201     -11.103  15.342 133.073  1.00 36.33     0.030 A 
ENDBRANCH  12  20
TORSDOF 2
REMARK  2 active torsions:
REMARK  status: ('A' for Active; 'I' for Inactive)
REMARK    1  A    between atoms: CAL_7  and  CAH_8 
REMARK    2  A    between atoms: NAI_19  and  CAK_20 
ROOT
HETATM    1  CAH P69 A 202     -18.333  18.185 129.315  1.00 42.53     0.230 C 
HETATM    2  NAG P69 A 202     -18.495  17.587 130.708  1.00 43.84    -0.363 N 
ATOM      3  HAG P69 A 202     -18.049  17.995 131.530  1.00  0.00     0.162 HD
HETATM    4  CAE P69 A 202     -19.296  16.439 130.785  1.00 37.67     0.045 A 
HETATM    5  CAD P69 A 202     -20.055  16.184 131.901  1.00 38.61     0.030 A 
HETATM    6  CAC P69 A 202     -20.880  15.061 131.967  1.00 33.75     0.002 A 
HETATM    7  CAB P69 A 202     -20.932  14.224 130.886  1.00 30.37     0.001 A 
HETATM    8  CAA P69 A 202     -20.180  14.501 129.748  1.00 33.11     0.019 A 
HETATM    9  CAF P69 A 202     -19.402  15.643 129.662  1.00 31.43     0.059 A 
HETATM   10  CAJ P69 A 202     -18.516  15.882 128.629  1.00 33.48     0.262 C 
HETATM   11  OAM P69 A 202     -18.014  14.920 128.071  1.00 40.02    -0.267 OA
HETATM   12  NAI P69 A 202     -17.840  17.042 128.499  1.00 37.68    -0.288 N 
ENDROOT
BRANCH   1  13
HETATM   13  CAL P69 A 202     -19.501  18.743 128.665  1.00 44.55     0.023 A 
HETATM   14  CAW P69 A 202     -19.983  18.278 127.425  1.00 43.30     0.014 A 
HETATM   15  CAV P69 A 202     -21.088  18.852 126.822  1.00 45.97     0.001 A 
HETATM   16  CAU P69 A 202     -21.728  19.935 127.416  1.00 47.53     0.003 A 
HETATM   17  CAT P69 A 202     -21.275  20.416 128.631  1.00 43.52     0.043 A 
HETATM   18  CAS P69 A 202     -20.171  19.828 129.247  1.00 47.42     0.126 A 
HETATM   19  FAX P69 A 202     -19.740  20.344 130.443  1.00 42.07    -0.205 F 
ENDBRANCH   1  13
BRANCH  12  20
HETATM   20  CAK P69 A 202     -16.748  17.197 127.723  1.00 33.46     0.040 A 
HETATM   21  CAN P69 A 202     -16.799  16.962 126.351  1.00 35.03     0.030 A 
HETATM   22  CAO P69 A 202     -15.665  17.216 125.564  1.00 34.10     0.002 A 
HETATM   23  CAP P69 A 202     -14.465  17.688 126.138  1.00 33.51     0.000 A 
HETATM   24  CAQ P69 A 202     -14.426  17.952 127.503  1.00 30.23     0.002 A 
HETATM   25  CAR P69 A 202     -15.568  17.724 128.269  1.00 30.63     0.030 A 
ENDBRANCH  12  20
TORSDOF 2
ENDMDL
MODEL 8
REMARK VINA RESULT:   -17.445      1.740      8.899
REMARK ITER + INTRA:          -21.026
REMARK INTER:                 -18.638
REMARK INTRA:                  -2.389
REMARK CONF_INDEPENDENT:        1.193
REMARK UNBOUND:                 2.389
REMARK  2 active torsions:
REMARK  status: ('A' for Active; 'I' for Inactive)
REMARK    1  A    between atoms: CAL_7  and  CAH_8 
REMARK    2  A    between atoms: NAI_19  and  CAK_20 
ROOT
HETATM    1  CAH P59 A 201     -11.908  13.864 131.680  1.00 22.72     0.230 C 
HETATM    2  NAG P59 A 201     -13.208  13.508 132.311  1.00 20.91    -0.363 N 
ATOM      3  HAG P59 A 201     -13.259  12.778 133.023  1.00  0.00     0.162 HD
HETATM    4  CAE P59 A 201     -14.347  14.186 131.915  1.00 20.12     0.045 A 
HETATM    5  CAD P59 A 201     -15.584  13.639 132.177  1.00 20.63     0.030 A 
HETATM    6  CAC P59 A 201     -16.753  14.303 131.796  1.00 21.37     0.002 A 
HETATM    7  CAB P59 A 201     -16.633  15.521 131.171  1.00 23.94     0.001 A 
HETATM    8  CAA P59 A 201     -15.372  16.085 130.899  1.00 23.01     0.019 A 
HETATM    9  CAF P59 A 201     -14.223  15.399 131.239  1.00 23.66     0.059 A 
HETATM   10  CAJ P59 A 201     -12.964  15.988 131.092  1.00 25.37     0.262 C 
HETATM   11  OAM P59 A 201     -12.848  17.215 130.912  1.00 28.44    -0.267 OA
HETATM   12  NAI P59 A 201     -11.851  15.314 131.410  1.00 23.34    -0.288 N 
ENDROOT
BRANCH   1  13
HETATM   13  CAL P59 A 201     -11.719  13.181 130.456  1.00 21.79     0.023 A 
HETATM   14  CAW P59 A 201     -12.231  13.587 129.205  1.00 22.56     0.014 A 
HETATM   15  CAV P59 A 201     -11.990  12.825 128.041  1.00 22.43     0.001 A 
HETATM   16  CAU P59 A 201     -11.179  11.692 128.092  1.00 20.74     0.003 A 
HETATM   17  CAT P59 A 201     -10.670  11.307 129.320  1.00 22.12     0.043 A 
HETATM   18  CAS P59 A 201     -10.926  12.041 130.473  1.00 24.35     0.126 A 
HETATM   19  FAX P59 A 201     -10.425  11.678 131.584  1.00 27.37    -0.205 F 
ENDBRANCH   1  13
BRANCH  12  20
HETATM   20  CAK P59 A 201     -10.687  15.970 131.550  1.00 27.04     0.040 A 
HETATM   21  CAN P59 A 201     -10.439  16.508 132.827  1.00 25.91     0.030 A 
HETATM   22  CAO P59 A 201      -9.270  17.180 133.129  1.00 28.35     0.002 A 
HETATM   23  CAP P59 A 201      -8.335  17.380 132.135  1.00 31.73     0.000 A 
HETATM   24  CAQ P59 A 201      -8.573  16.889 130.845  1.00 37.83     0.002 A 
HETATM   25  CAR P59 A 201      -9.757  16.174 130.547  1.00 36.33     0.030 A 
ENDBRANCH  12  20
TORSDOF 2
REMARK  2 active torsions:
REMARK  status: ('A' for Active; 'I' for Inactive)
REMARK    1  A    between atoms: CAL_7  and  CAH_8 
REMARK    2  A    between atoms: NAI_19  and  CAK_20 
ROOT
HETATM    1  CAH P69 A 202     -18.742  18.278 128.891  1.00 42.53     0.230 C 
HETATM    2  NAG P69 A 202     -18.974  17.878 130.343  1.00 43.84    -0.363 N 
ATOM      3  HAG P69 A 202     -18.667  18.459 131.124  1.00  0.00     0.162 HD
HETATM    4  CAE P69 A 202     -19.637  16.658 130.537  1.00 37.67     0.045 A 
HETATM    5  CAD P69 A 202     -20.471  16.473 131.613  1.00 38.61     0.030 A 
HETATM    6  CAC P69 A 202     -21.160  15.272 131.789  1.00 33.75     0.002 A 
HETATM    7  CAB P69 A 202     -21.000  14.284 130.856  1.00 30.37     0.001 A 
HETATM    8  CAA P69 A 202     -20.173  14.487 129.755  1.00 33.11     0.019 A 
HETATM    9  CAF P69 A 202     -19.532  15.696 129.551  1.00 31.43     0.059 A 
HETATM   10  CAJ P69 A 202     -18.579  15.895 128.571  1.00 33.48     0.262 C 
HETATM   11  OAM P69 A 202     -17.912  14.937 128.218  1.00 40.02    -0.267 OA
HETATM   12  NAI P69 A 202     -18.036  17.102 128.313  1.00 37.68    -0.288 N 
ENDROOT
BRANCH   1  13
HETATM   13  CAL P69 A 202     -19.895  18.572 128.065  1.00 44.55     0.023 A 
HETATM   14  CAW P69 A 202     -20.093  17.999 126.793  1.00 43.30     0.014 A 
HETATM   15  CAV P69 A 202     -21.194  18.323 126.022  1.00 45.97     0.001 A 
HETATM   16  CAU P69 A 202     -22.118  19.260 126.475  1.00 47.53     0.003 A 
HETATM   17  CAT P69 A 202     -21.949  19.841 127.719  1.00 43.52     0.043 A 
HETATM   18  CAS P69 A 202     -20.847  19.504 128.503  1.00 47.42     0.126 A 
HETATM   19  FAX P69 A 202     -20.703  20.116 129.723  1.00 42.07    -0.205 F 
ENDBRANCH   1  13
BRANCH  12  20
HETATM   20  CAK P69 A 202     -16.896  17.284 127.616  1.00 33.46     0.040 A 
HETATM   21  CAN P69 A 202     -16.809  16.933 126.271  1.00 35.03     0.030 A 
HETATM   22  CAO P69 A 202     -15.634  17.215 125.557  1.00 34.10     0.002 A 
HETATM   23  CAP P69 A 202     -14.529  17.834 126.180  1.00 33.51     0.000 A 
HETATM   24  CAQ P69 A 202     -14.630  18.213 127.513  1.00 30.23     0.002 A 
HETATM   25  CAR P69 A 202     -15.812  17.953 128.204  1.00 30.63     0.030 A 
ENDBRANCH  12  20
TORSDOF 2
ENDMDL
MODEL 9
REMARK VINA RESULT:   -17.436      1.999      9.411
REMARK ITER + INTRA:          -20.999
REMARK INTER:                 -18.629
REMARK INTRA:                  -2.370
REMARK CONF_INDEPENDENT:        1.193
REMARK UNBOUND:                 2.370
REMARK  2 active torsions:
REMARK  status: ('A' for Active; 'I' for Inactive)
REMARK    1  A    between atoms: CAL_7  and  CAH_8 
REMARK    2  A    between atoms: NAI_19  and  CAK_20 
ROOT
HETATM    1  CAH P59 A 201     -11.928  15.301 129.111  1.00 22.72     0.230 C 
HETATM    2  NAG P59 A 201     -11.264  14.689 127.927  1.00 20.91    -0.363 N 
ATOM      3  HAG P59 A 201     -11.042  15.253 127.106  1.00  0.00     0.162 HD
HETATM    4  CAE P59 A 201     -10.952  13.341 127.963  1.00 20.12     0.045 A 
HETATM    5  CAD P59 A 201     -10.705  12.675 126.783  1.00 20.63     0.030 A 
HETATM    6  CAC P59 A 201     -10.381  11.315 126.786  1.00 21.37     0.002 A 
HETATM    7  CAB P59 A 201     -10.300  10.671 127.997  1.00 23.94     0.001 A 
HETATM    8  CAA P59 A 201     -10.552  11.346 129.206  1.00 23.01     0.019 A 
HETATM    9  CAF P59 A 201     -10.917  12.677 129.188  1.00 23.66     0.059 A 
HETATM   10  CAJ P59 A 201     -11.054  13.401 130.376  1.00 25.37     0.262 C 
HETATM   11  OAM P59 A 201     -10.601  12.962 131.450  1.00 28.44    -0.267 OA
HETATM   12  NAI P59 A 201     -11.420  14.690 130.355  1.00 23.34    -0.288 N 
ENDROOT
BRANCH   1  13
HETATM   13  CAL P59 A 201     -13.331  15.120 129.073  1.00 21.79     0.023 A 
HETATM   14  CAW P59 A 201     -13.992  13.943 128.661  1.00 22.56     0.014 A 
HETATM   15  CAV P59 A 201     -15.403  13.870 128.653  1.00 22.43     0.001 A 
HETATM   16  CAU P59 A 201     -16.170  14.937 129.120  1.00 20.74     0.003 A 
HETATM   17  CAT P59 A 201     -15.512  16.082 129.533  1.00 22.12     0.043 A 
HETATM   18  CAS P59 A 201     -14.125  16.167 129.519  1.00 24.35     0.126 A 
HETATM   19  FAX P59 A 201     -13.547  17.224 129.928  1.00 27.37    -0.205 F 
ENDBRANCH   1  13
BRANCH  12  20
HETATM   20  CAK P59 A 201     -11.263  15.449 131.451  1.00 27.04     0.040 A 
HETATM   21  CAN P59 A 201      -9.943  15.844 131.737  1.00 25.91     0.030 A 
HETATM   22  CAO P59 A 201      -9.632  16.654 132.814  1.00 28.35     0.002 A 
HETATM   23  CAP P59 A 201     -10.639  17.047 133.670  1.00 31.73     0.000 A 
HETATM   24  CAQ P59 A 201     -11.957  16.637 133.431  1.00 37.83     0.002 A 
HETATM   25  CAR P59 A 201     -12.276  15.834 132.311  1.00 36.33     0.030 A 
ENDBRANCH  12  20
TORSDOF 2
REMARK  2 active torsions:
REMARK  status: ('A' for Active; 'I' for Inactive)
REMARK    1  A    between atoms: CAL_7  and  CAH_8 
REMARK    2  A    between atoms: NAI_19  and  CAK_20 
ROOT
HETATM    1  CAH P69 A 202     -19.882  17.422 128.268  1.00 42.53     0.230 C 
HETATM    2  NAG P69 A 202     -20.461  16.148 128.870  1.00 43.84    -0.363 N 
ATOM      3  HAG P69 A 202     -21.310  15.712 128.508  1.00  0.00     0.162 HD
HETATM    4  CAE P69 A 202     -19.752  15.613 129.954  1.00 37.67     0.045 A 
HETATM    5  CAD P69 A 202     -19.705  14.256 130.166  1.00 38.61     0.030 A 
HETATM    6  CAC P69 A 202     -18.971  13.719 131.224  1.00 33.75     0.002 A 
HETATM    7  CAB P69 A 202     -18.281  14.573 132.040  1.00 30.37     0.001 A 
HETATM    8  CAA P69 A 202     -18.312  15.945 131.806  1.00 33.11     0.019 A 
HETATM    9  CAF P69 A 202     -18.997  16.474 130.726  1.00 31.43     0.059 A 
HETATM   10  CAJ P69 A 202     -19.194  17.829 130.542  1.00 33.48     0.262 C 
HETATM   11  OAM P69 A 202     -19.242  18.541 131.531  1.00 40.02    -0.267 OA
HETATM   12  NAI P69 A 202     -19.770  18.340 129.435  1.00 37.68    -0.288 N 
ENDROOT
BRANCH   1  13
HETATM   13  CAL P69 A 202     -18.591  17.352 127.615  1.00 44.55     0.023 A 
HETATM   14  CAW P69 A 202     -17.591  18.329 127.787  1.00 43.30     0.014 A 
HETATM   15  CAV P69 A 202     -16.378  18.240 127.128  1.00 45.97     0.001 A 
HETATM   16  CAU P69 A 202     -16.136  17.195 126.242  1.00 47.53     0.003 A 
HETATM   17  CAT P69 A 202     -17.101  16.223 126.050  1.00 43.52     0.043 A 
HETATM   18  CAS P69 A 202     -18.317  16.303 126.726  1.00 47.42     0.126 A 
HETATM   19  FAX P69 A 202     -19.257  15.330 126.496  1.00 42.07    -0.205 F 
ENDBRANCH   1  13
BRANCH  12  20
HETATM   20  CAK P69 A 202     -20.273  19.589 129.354  1.00 33.46     0.040 A 
HETATM   21  CAN P69 A 202     -21.601  19.810 128.997  1.00 35.03     0.030 A 
HETATM   22  CAO P69 A 202     -22.111  21.117 129.005  1.00 34.10     0.002 A 
HETATM   23  CAP P69 A 202     -21.298  22.219 129.351  1.00 33.51     0.000 A 
HETATM   24  CAQ P69 A 202     -19.983  21.993 129.738  1.00 30.23     0.002 A 
HETATM   25  CAR P69 A 202     -19.496  20.687 129.754  1.00 30.63     0.030 A 
ENDBRANCH  12  20
TORSDOF 2
ENDMDL
