REMARK  2 active torsions:
REMARK  status: ('A' for Active; 'I' for Inactive)
REMARK    1  A    between atoms: CAL_7  and  CAH_8 
REMARK    2  A    between atoms: NAI_19  and  CAK_20 
ROOT
HETATM    1  CAH P69 A 202     -11.690  15.431 130.142  1.00 42.53     0.230 C 
HETATM    2  NAG P69 A 202     -13.114  15.953 129.994  1.00 43.84    -0.363 N 
ATOM      3  HAG P69 A 202     -13.326  16.825 129.508  1.00  0.00     0.162 HD
HETATM    4  CAE P69 A 202     -14.114  15.157 130.569  1.00 37.67     0.045 A 
HETATM    5  CAD P69 A 202     -15.367  15.086 130.009  1.00 38.61     0.030 A 
HETATM    6  CAC P69 A 202     -16.354  14.267 130.559  1.00 33.75     0.002 A 
HETATM    7  CAB P69 A 202     -16.043  13.520 131.662  1.00 30.37     0.001 A 
HETATM    8  CAA P69 A 202     -14.765  13.577 132.210  1.00 33.11     0.019 A 
HETATM    9  CAF P69 A 202     -13.770  14.348 131.634  1.00 31.43     0.059 A 
HETATM   10  CAJ P69 A 202     -12.541  14.567 132.225  1.00 33.48     0.262 C 
HETATM   11  OAM P69 A 202     -12.478  14.541 133.443  1.00 40.02    -0.267 OA
HETATM   12  NAI P69 A 202     -11.542  15.232 131.610  1.00 37.68    -0.288 N 
ENDROOT
BRANCH   1  13
HETATM   13  CAL P69 A 202     -11.336  14.195 129.474  1.00 44.55     0.023 A 
HETATM   14  CAW P69 A 202     -11.007  13.015 130.170  1.00 43.30     0.014 A 
HETATM   15  CAV P69 A 202     -10.650  11.860 129.498  1.00 45.97     0.001 A 
HETATM   16  CAU P69 A 202     -10.570  11.852 128.109  1.00 47.53     0.003 A 
HETATM   17  CAT P69 A 202     -10.884  12.997 127.399  1.00 43.52     0.043 A 
HETATM   18  CAS P69 A 202     -11.259  14.157 128.075  1.00 47.42     0.126 A 
HETATM   19  FAX P69 A 202     -11.545  15.278 127.337  1.00 42.07    -0.205 F 
ENDBRANCH   1  13
BRANCH  12  20
HETATM   20  CAK P69 A 202     -10.472  15.747 132.249  1.00 33.46     0.040 A 
HETATM   21  CAN P69 A 202      -9.228  15.824 131.627  1.00 35.03     0.030 A 
HETATM   22  CAO P69 A 202      -8.159  16.443 132.293  1.00 34.10     0.002 A 
HETATM   23  CAP P69 A 202      -8.314  16.976 133.591  1.00 33.51     0.000 A 
HETATM   24  CAQ P69 A 202      -9.564  16.927 134.197  1.00 30.23     0.002 A 
HETATM   25  CAR P69 A 202     -10.625  16.335 133.514  1.00 30.63     0.030 A 
ENDBRANCH  12  20
TORSDOF 2
