MODEL 1
REMARK VINA RESULT:   -20.716      0.000      0.000
REMARK ITER + INTRA:          -25.785
REMARK INTER:                 -26.003
REMARK INTRA:                   0.218
REMARK UNBOUND:                -0.224
REMARK  2 active torsions:
REMARK  status: ('A' for Active; 'I' for Inactive)
REMARK    1  A    between atoms: CAL_7  and  CAH_8 
REMARK    2  A    between atoms: NAI_19  and  CAK_20 
ROOT
HETATM    1  CAH P59 A 201     -19.059  17.936 129.313  1.00 22.72     0.230 C 
HETATM    2  NAG P59 A 201     -19.923  19.147 129.365  1.00 20.91    -0.363 N 
ATOM      3  HAG P59 A 201     -19.806  19.838 130.107  1.00  0.00     0.162 HD
HETATM    4  CAE P59 A 201     -20.888  19.318 128.388  1.00 20.12     0.045 A 
HETATM    5  CAD P59 A 201     -21.929  20.190 128.614  1.00 20.63     0.030 A 
HETATM    6  CAC P59 A 201     -22.916  20.390 127.644  1.00 21.37     0.002 A 
HETATM    7  CAB P59 A 201     -22.806  19.707 126.457  1.00 23.94     0.001 A 
HETATM    8  CAA P59 A 201     -21.744  18.814 126.220  1.00 23.01     0.019 A 
HETATM    9  CAF P59 A 201     -20.801  18.589 127.203  1.00 23.66     0.059 A 
HETATM   10  CAJ P59 A 201     -19.673  17.803 126.951  1.00 25.37     0.262 C 
HETATM   11  OAM P59 A 201     -19.345  17.508 125.786  1.00 28.44    -0.267 OA
HETATM   12  NAI P59 A 201     -18.767  17.576 127.911  1.00 23.34    -0.288 N 
ENDROOT
BRANCH   1  13
HETATM   13  CAL P59 A 201     -19.681  16.825 129.931  1.00 21.79     0.023 A 
HETATM   14  CAW P59 A 201     -20.325  15.768 129.254  1.00 22.56     0.014 A 
HETATM   15  CAV P59 A 201     -20.924  14.707 129.970  1.00 22.43     0.001 A 
HETATM   16  CAU P59 A 201     -20.827  14.648 131.360  1.00 20.74     0.003 A 
HETATM   17  CAT P59 A 201     -20.184  15.684 132.014  1.00 22.12     0.043 A 
HETATM   18  CAS P59 A 201     -19.615  16.742 131.315  1.00 24.35     0.126 A 
HETATM   19  FAX P59 A 201     -19.008  17.667 131.942  1.00 27.37    -0.205 F 
ENDBRANCH   1  13
BRANCH  12  20
HETATM   20  CAK P59 A 201     -17.560  17.082 127.591  1.00 27.04     0.040 A 
HETATM   21  CAN P59 A 201     -16.534  18.033 127.428  1.00 25.91     0.030 A 
HETATM   22  CAO P59 A 201     -15.234  17.670 127.130  1.00 28.35     0.002 A 
HETATM   23  CAP P59 A 201     -14.938  16.337 126.932  1.00 31.73     0.000 A 
HETATM   24  CAQ P59 A 201     -15.947  15.373 127.049  1.00 37.83     0.002 A 
HETATM   25  CAR P59 A 201     -17.270  15.745 127.385  1.00 36.33     0.030 A 
ENDBRANCH  12  20
TORSDOF 2
REMARK  2 active torsions:
REMARK  status: ('A' for Active; 'I' for Inactive)
REMARK    1  A    between atoms: CAL_7  and  CAH_8 
REMARK    2  A    between atoms: NAI_19  and  CAK_20 
ROOT
HETATM    1  CAH P69 A 202     -12.182  15.680 130.160  1.00 42.53     0.230 C 
HETATM    2  NAG P69 A 202     -13.628  16.151 130.245  1.00 43.84    -0.363 N 
ATOM      3  HAG P69 A 202     -13.939  17.031 129.831  1.00  0.00     0.162 HD
HETATM    4  CAE P69 A 202     -14.505  15.298 130.929  1.00 37.67     0.045 A 
HETATM    5  CAD P69 A 202     -15.824  15.198 130.557  1.00 38.61     0.030 A 
HETATM    6  CAC P69 A 202     -16.691  14.323 131.213  1.00 33.75     0.002 A 
HETATM    7  CAB P69 A 202     -16.194  13.550 132.227  1.00 30.37     0.001 A 
HETATM    8  CAA P69 A 202     -14.851  13.637 132.582  1.00 33.11     0.019 A 
HETATM    9  CAF P69 A 202     -13.979  14.466 131.897  1.00 31.43     0.059 A 
HETATM   10  CAJ P69 A 202     -12.684  14.711 132.309  1.00 33.48     0.262 C 
HETATM   11  OAM P69 A 202     -12.439  14.645 133.502  1.00 40.02    -0.267 OA
HETATM   12  NAI P69 A 202     -11.810  15.435 131.581  1.00 37.68    -0.288 N 
ENDROOT
BRANCH   1  13
HETATM   13  CAL P69 A 202     -11.891  14.483 129.397  1.00 44.55     0.023 A 
HETATM   14  CAW P69 A 202     -11.490  13.272 129.996  1.00 43.30     0.014 A 
HETATM   15  CAV P69 A 202     -11.196  12.156 129.233  1.00 45.97     0.001 A 
HETATM   16  CAU P69 A 202     -11.254  12.219 127.845  1.00 47.53     0.003 A 
HETATM   17  CAT P69 A 202     -11.641  13.396 127.229  1.00 43.52     0.043 A 
HETATM   18  CAS P69 A 202     -11.952  14.517 127.998  1.00 47.42     0.126 A 
HETATM   19  FAX P69 A 202     -12.314  15.671 127.350  1.00 42.07    -0.205 F 
ENDBRANCH   1  13
BRANCH  12  20
HETATM   20  CAK P69 A 202     -10.675  15.969 132.075  1.00 33.46     0.040 A 
HETATM   21  CAN P69 A 202      -9.538  16.107 131.282  1.00 35.03     0.030 A 
HETATM   22  CAO P69 A 202      -8.402  16.744 131.807  1.00 34.10     0.002 A 
HETATM   23  CAP P69 A 202      -8.382  17.232 133.131  1.00 33.51     0.000 A 
HETATM   24  CAQ P69 A 202      -9.528  17.122 133.910  1.00 30.23     0.002 A 
HETATM   25  CAR P69 A 202     -10.659  16.513 133.368  1.00 30.63     0.030 A 
ENDBRANCH  12  20
TORSDOF 2
ENDMDL
MODEL 2
REMARK VINA RESULT:   -20.347      1.057      3.645
REMARK ITER + INTRA:          -25.330
REMARK INTER:                 -25.670
REMARK INTRA:                   0.340
REMARK UNBOUND:                -0.224
REMARK  2 active torsions:
REMARK  status: ('A' for Active; 'I' for Inactive)
REMARK    1  A    between atoms: CAL_7  and  CAH_8 
REMARK    2  A    between atoms: NAI_19  and  CAK_20 
ROOT
HETATM    1  CAH P59 A 201     -19.903  16.331 127.976  1.00 22.72     0.230 C 
HETATM    2  NAG P59 A 201     -18.822  15.611 127.249  1.00 20.91    -0.363 N 
ATOM      3  HAG P59 A 201     -19.028  14.770 126.710  1.00  0.00     0.162 HD
HETATM    4  CAE P59 A 201     -17.531  16.104 127.319  1.00 20.12     0.045 A 
HETATM    5  CAD P59 A 201     -16.476  15.280 126.999  1.00 20.63     0.030 A 
HETATM    6  CAC P59 A 201     -15.160  15.751 127.053  1.00 21.37     0.002 A 
HETATM    7  CAB P59 A 201     -14.955  17.060 127.416  1.00 23.94     0.001 A 
HETATM    8  CAA P59 A 201     -16.030  17.907 127.745  1.00 23.01     0.019 A 
HETATM    9  CAF P59 A 201     -17.321  17.419 127.733  1.00 23.66     0.059 A 
HETATM   10  CAJ P59 A 201     -18.412  18.267 127.937  1.00 25.37     0.262 C 
HETATM   11  OAM P59 A 201     -18.285  19.504 127.867  1.00 28.44    -0.267 OA
HETATM   12  NAI P59 A 201     -19.663  17.787 127.937  1.00 23.34    -0.288 N 
ENDROOT
BRANCH   1  13
HETATM   13  CAL P59 A 201     -19.975  15.933 129.332  1.00 21.79     0.023 A 
HETATM   14  CAW P59 A 201     -19.541  16.701 130.433  1.00 22.56     0.014 A 
HETATM   15  CAV P59 A 201     -19.650  16.204 131.751  1.00 22.43     0.001 A 
HETATM   16  CAU P59 A 201     -20.255  14.972 131.995  1.00 20.74     0.003 A 
HETATM   17  CAT P59 A 201     -20.688  14.231 130.910  1.00 22.12     0.043 A 
HETATM   18  CAS P59 A 201     -20.559  14.705 129.610  1.00 24.35     0.126 A 
HETATM   19  FAX P59 A 201     -20.989  14.012 128.633  1.00 27.37    -0.205 F 
ENDBRANCH   1  13
BRANCH  12  20
HETATM   20  CAK P59 A 201     -20.705  18.629 127.835  1.00 27.04     0.040 A 
HETATM   21  CAN P59 A 201     -21.303  18.709 126.563  1.00 25.91     0.030 A 
HETATM   22  CAO P59 A 201     -22.403  19.508 126.316  1.00 28.35     0.002 A 
HETATM   23  CAP P59 A 201     -22.903  20.295 127.332  1.00 31.73     0.000 A 
HETATM   24  CAQ P59 A 201     -22.304  20.265 128.597  1.00 37.83     0.002 A 
HETATM   25  CAR P59 A 201     -21.197  19.423 128.856  1.00 36.33     0.030 A 
ENDBRANCH  12  20
TORSDOF 2
REMARK  2 active torsions:
REMARK  status: ('A' for Active; 'I' for Inactive)
REMARK    1  A    between atoms: CAL_7  and  CAH_8 
REMARK    2  A    between atoms: NAI_19  and  CAK_20 
ROOT
HETATM    1  CAH P69 A 202     -12.086  15.578 130.148  1.00 42.53     0.230 C 
HETATM    2  NAG P69 A 202     -13.539  16.032 130.225  1.00 43.84    -0.363 N 
ATOM      3  HAG P69 A 202     -13.862  16.898 129.793  1.00  0.00     0.162 HD
HETATM    4  CAE P69 A 202     -14.402  15.182 130.929  1.00 37.67     0.045 A 
HETATM    5  CAD P69 A 202     -15.721  15.057 130.563  1.00 38.61     0.030 A 
HETATM    6  CAC P69 A 202     -16.574  14.185 131.240  1.00 33.75     0.002 A 
HETATM    7  CAB P69 A 202     -16.066  13.441 132.269  1.00 30.37     0.001 A 
HETATM    8  CAA P69 A 202     -14.724  13.554 132.620  1.00 33.11     0.019 A 
HETATM    9  CAF P69 A 202     -13.864  14.379 131.915  1.00 31.43     0.059 A 
HETATM   10  CAJ P69 A 202     -12.571  14.650 132.319  1.00 33.48     0.262 C 
HETATM   11  OAM P69 A 202     -12.324  14.613 133.512  1.00 40.02    -0.267 OA
HETATM   12  NAI P69 A 202     -11.709  15.370 131.573  1.00 37.68    -0.288 N 
ENDROOT
BRANCH   1  13
HETATM   13  CAL P69 A 202     -11.780  14.369 129.411  1.00 44.55     0.023 A 
HETATM   14  CAW P69 A 202     -11.403  13.164 130.038  1.00 43.30     0.014 A 
HETATM   15  CAV P69 A 202     -11.095  12.036 129.300  1.00 45.97     0.001 A 
HETATM   16  CAU P69 A 202     -11.113  12.079 127.910  1.00 47.53     0.003 A 
HETATM   17  CAT P69 A 202     -11.476  13.249 127.267  1.00 43.52     0.043 A 
HETATM   18  CAS P69 A 202     -11.802  14.382 128.010  1.00 47.42     0.126 A 
HETATM   19  FAX P69 A 202     -12.139  15.529 127.336  1.00 42.07    -0.205 F 
ENDBRANCH   1  13
BRANCH  12  20
HETATM   20  CAK P69 A 202     -10.579  15.929 132.053  1.00 33.46     0.040 A 
HETATM   21  CAN P69 A 202      -9.475  16.144 131.232  1.00 35.03     0.030 A 
HETATM   22  CAO P69 A 202      -8.349  16.805 131.747  1.00 34.10     0.002 A 
HETATM   23  CAP P69 A 202      -8.305  17.242 133.088  1.00 33.51     0.000 A 
HETATM   24  CAQ P69 A 202      -9.420  17.055 133.897  1.00 30.23     0.002 A 
HETATM   25  CAR P69 A 202     -10.543  16.423 133.366  1.00 30.63     0.030 A 
ENDBRANCH  12  20
TORSDOF 2
ENDMDL
MODEL 3
REMARK VINA RESULT:   -20.132      1.393      3.179
REMARK ITER + INTRA:          -25.064
REMARK INTER:                 -25.465
REMARK INTRA:                   0.401
REMARK UNBOUND:                -0.224
REMARK  2 active torsions:
REMARK  status: ('A' for Active; 'I' for Inactive)
REMARK    1  A    between atoms: CAL_7  and  CAH_8 
REMARK    2  A    between atoms: NAI_19  and  CAK_20 
ROOT
HETATM    1  CAH P59 A 201     -18.872  17.861 129.324  1.00 22.72     0.230 C 
HETATM    2  NAG P59 A 201     -19.744  19.067 129.379  1.00 20.91    -0.363 N 
ATOM      3  HAG P59 A 201     -19.636  19.753 130.127  1.00  0.00     0.162 HD
HETATM    4  CAE P59 A 201     -20.702  19.241 128.396  1.00 20.12     0.045 A 
HETATM    5  CAD P59 A 201     -21.750  20.105 128.621  1.00 20.63     0.030 A 
HETATM    6  CAC P59 A 201     -22.730  20.308 127.645  1.00 21.37     0.002 A 
HETATM    7  CAB P59 A 201     -22.607  19.634 126.453  1.00 23.94     0.001 A 
HETATM    8  CAA P59 A 201     -21.539  18.749 126.218  1.00 23.01     0.019 A 
HETATM    9  CAF P59 A 201     -20.602  18.521 127.206  1.00 23.66     0.059 A 
HETATM   10  CAJ P59 A 201     -19.468  17.744 126.956  1.00 25.37     0.262 C 
HETATM   11  OAM P59 A 201     -19.129  17.460 125.792  1.00 28.44    -0.267 OA
HETATM   12  NAI P59 A 201     -18.567  17.514 127.921  1.00 23.34    -0.288 N 
ENDROOT
BRANCH   1  13
HETATM   13  CAL P59 A 201     -19.493  16.742 129.928  1.00 21.79     0.023 A 
HETATM   14  CAW P59 A 201     -20.163  15.708 129.240  1.00 22.56     0.014 A 
HETATM   15  CAV P59 A 201     -20.757  14.637 129.943  1.00 22.43     0.001 A 
HETATM   16  CAU P59 A 201     -20.632  14.543 131.329  1.00 20.74     0.003 A 
HETATM   17  CAT P59 A 201     -19.963  15.556 131.994  1.00 22.12     0.043 A 
HETATM   18  CAS P59 A 201     -19.398  16.625 131.308  1.00 24.35     0.126 A 
HETATM   19  FAX P59 A 201     -18.767  17.528 131.944  1.00 27.37    -0.205 F 
ENDBRANCH   1  13
BRANCH  12  20
HETATM   20  CAK P59 A 201     -17.356  17.030 127.606  1.00 27.04     0.040 A 
HETATM   21  CAN P59 A 201     -16.359  17.991 127.354  1.00 25.91     0.030 A 
HETATM   22  CAO P59 A 201     -15.057  17.641 127.051  1.00 28.35     0.002 A 
HETATM   23  CAP P59 A 201     -14.730  16.306 126.936  1.00 31.73     0.000 A 
HETATM   24  CAQ P59 A 201     -15.711  15.328 127.144  1.00 37.83     0.002 A 
HETATM   25  CAR P59 A 201     -17.036  15.689 127.485  1.00 36.33     0.030 A 
ENDBRANCH  12  20
TORSDOF 2
REMARK  2 active torsions:
REMARK  status: ('A' for Active; 'I' for Inactive)
REMARK    1  A    between atoms: CAL_7  and  CAH_8 
REMARK    2  A    between atoms: NAI_19  and  CAK_20 
ROOT
HETATM    1  CAH P69 A 202     -11.799  14.218 131.878  1.00 42.53     0.230 C 
HETATM    2  NAG P69 A 202     -11.320  12.926 131.227  1.00 43.84    -0.363 N 
ATOM      3  HAG P69 A 202     -11.184  12.066 131.759  1.00  0.00     0.162 HD
HETATM    4  CAE P69 A 202     -11.079  12.996 129.848  1.00 37.67     0.045 A 
HETATM    5  CAD P69 A 202     -11.296  11.907 129.038  1.00 38.61     0.030 A 
HETATM    6  CAC P69 A 202     -11.091  11.984 127.660  1.00 33.75     0.002 A 
HETATM    7  CAB P69 A 202     -10.683  13.175 127.126  1.00 30.37     0.001 A 
HETATM    8  CAA P69 A 202     -10.488  14.282 127.948  1.00 33.11     0.019 A 
HETATM    9  CAF P69 A 202     -10.743  14.221 129.307  1.00 31.43     0.059 A 
HETATM   10  CAJ P69 A 202     -10.414  15.233 130.187  1.00 33.48     0.262 C 
HETATM   11  OAM P69 A 202      -9.461  15.944 129.913  1.00 40.02    -0.267 OA
HETATM   12  NAI P69 A 202     -10.759  15.210 131.491  1.00 37.68    -0.288 N 
ENDROOT
BRANCH   1  13
HETATM   13  CAL P69 A 202     -13.096  14.741 131.500  1.00 44.55     0.023 A 
HETATM   14  CAW P69 A 202     -13.256  15.927 130.755  1.00 43.30     0.014 A 
HETATM   15  CAV P69 A 202     -14.512  16.409 130.433  1.00 45.97     0.001 A 
HETATM   16  CAU P69 A 202     -15.653  15.747 130.876  1.00 47.53     0.003 A 
HETATM   17  CAT P69 A 202     -15.526  14.583 131.611  1.00 43.52     0.043 A 
HETATM   18  CAS P69 A 202     -14.261  14.087 131.923  1.00 47.42     0.126 A 
HETATM   19  FAX P69 A 202     -14.176  12.939 132.670  1.00 42.07    -0.205 F 
ENDBRANCH   1  13
BRANCH  12  20
HETATM   20  CAK P69 A 202     -10.193  15.988 132.436  1.00 33.46     0.040 A 
HETATM   21  CAN P69 A 202     -10.802  16.177 133.675  1.00 35.03     0.030 A 
HETATM   22  CAO P69 A 202     -10.142  16.924 134.662  1.00 34.10     0.002 A 
HETATM   23  CAP P69 A 202      -8.878  17.504 134.421  1.00 33.51     0.000 A 
HETATM   24  CAQ P69 A 202      -8.258  17.288 133.195  1.00 30.23     0.002 A 
HETATM   25  CAR P69 A 202      -8.911  16.520 132.232  1.00 30.63     0.030 A 
ENDBRANCH  12  20
TORSDOF 2
ENDMDL
MODEL 4
REMARK VINA RESULT:   -19.330      1.739      4.839
REMARK ITER + INTRA:          -24.075
REMARK INTER:                 -24.435
REMARK INTRA:                   0.360
REMARK UNBOUND:                -0.224
REMARK  2 active torsions:
REMARK  status: ('A' for Active; 'I' for Inactive)
REMARK    1  A    between atoms: CAL_7  and  CAH_8 
REMARK    2  A    between atoms: NAI_19  and  CAK_20 
ROOT
HETATM    1  CAH P59 A 201     -19.800  16.304 127.974  1.00 22.72     0.230 C 
HETATM    2  NAG P59 A 201     -18.697  15.606 127.259  1.00 20.91    -0.363 N 
ATOM      3  HAG P59 A 201     -18.878  14.751 126.733  1.00  0.00     0.162 HD
HETATM    4  CAE P59 A 201     -17.422  16.140 127.322  1.00 20.12     0.045 A 
HETATM    5  CAD P59 A 201     -16.342  15.343 127.014  1.00 20.63     0.030 A 
HETATM    6  CAC P59 A 201     -15.041  15.854 127.061  1.00 21.37     0.002 A 
HETATM    7  CAB P59 A 201     -14.876  17.175 127.404  1.00 23.94     0.001 A 
HETATM    8  CAA P59 A 201     -15.976  17.994 127.720  1.00 23.01     0.019 A 
HETATM    9  CAF P59 A 201     -17.252  17.466 127.715  1.00 23.66     0.059 A 
HETATM   10  CAJ P59 A 201     -18.369  18.284 127.905  1.00 25.37     0.262 C 
HETATM   11  OAM P59 A 201     -18.279  19.523 127.816  1.00 28.44    -0.267 OA
HETATM   12  NAI P59 A 201     -19.605  17.767 127.913  1.00 23.34    -0.288 N 
ENDROOT
BRANCH   1  13
HETATM   13  CAL P59 A 201     -19.860  15.926 129.336  1.00 21.79     0.023 A 
HETATM   14  CAW P59 A 201     -19.345  16.673 130.416  1.00 22.56     0.014 A 
HETATM   15  CAV P59 A 201     -19.450  16.198 131.742  1.00 22.43     0.001 A 
HETATM   16  CAU P59 A 201     -20.131  15.013 132.017  1.00 20.74     0.003 A 
HETATM   17  CAT P59 A 201     -20.643  14.292 130.953  1.00 22.12     0.043 A 
HETATM   18  CAS P59 A 201     -20.520  14.743 129.644  1.00 24.35     0.126 A 
HETATM   19  FAX P59 A 201     -21.023  14.072 128.688  1.00 27.37    -0.205 F 
ENDBRANCH   1  13
BRANCH  12  20
HETATM   20  CAK P59 A 201     -20.671  18.574 127.797  1.00 27.04     0.040 A 
HETATM   21  CAN P59 A 201     -21.223  18.676 126.506  1.00 25.91     0.030 A 
HETATM   22  CAO P59 A 201     -22.342  19.444 126.242  1.00 28.35     0.002 A 
HETATM   23  CAP P59 A 201     -22.907  20.180 127.262  1.00 31.73     0.000 A 
HETATM   24  CAQ P59 A 201     -22.355  20.128 128.548  1.00 37.83     0.002 A 
HETATM   25  CAR P59 A 201     -21.229  19.317 128.823  1.00 36.33     0.030 A 
ENDBRANCH  12  20
TORSDOF 2
REMARK  2 active torsions:
REMARK  status: ('A' for Active; 'I' for Inactive)
REMARK    1  A    between atoms: CAL_7  and  CAH_8 
REMARK    2  A    between atoms: NAI_19  and  CAK_20 
ROOT
HETATM    1  CAH P69 A 202     -11.708  14.138 131.894  1.00 42.53     0.230 C 
HETATM    2  NAG P69 A 202     -11.204  12.874 131.209  1.00 43.84    -0.363 N 
ATOM      3  HAG P69 A 202     -11.021  12.012 131.724  1.00  0.00     0.162 HD
HETATM    4  CAE P69 A 202     -11.008  12.972 129.825  1.00 37.67     0.045 A 
HETATM    5  CAD P69 A 202     -11.212  11.887 129.006  1.00 38.61     0.030 A 
HETATM    6  CAC P69 A 202     -11.052  11.991 127.624  1.00 33.75     0.002 A 
HETATM    7  CAB P69 A 202     -10.703  13.203 127.096  1.00 30.37     0.001 A 
HETATM    8  CAA P69 A 202     -10.522  14.304 127.928  1.00 33.11     0.019 A 
HETATM    9  CAF P69 A 202     -10.732  14.216 129.293  1.00 31.43     0.059 A 
HETATM   10  CAJ P69 A 202     -10.412  15.227 130.178  1.00 33.48     0.262 C 
HETATM   11  OAM P69 A 202      -9.494  15.975 129.885  1.00 40.02    -0.267 OA
HETATM   12  NAI P69 A 202     -10.716  15.173 131.491  1.00 37.68    -0.288 N 
ENDROOT
BRANCH   1  13
HETATM   13  CAL P69 A 202     -13.033  14.620 131.563  1.00 44.55     0.023 A 
HETATM   14  CAW P69 A 202     -13.258  15.808 130.840  1.00 43.30     0.014 A 
HETATM   15  CAV P69 A 202     -14.540  16.250 130.564  1.00 45.97     0.001 A 
HETATM   16  CAU P69 A 202     -15.642  15.543 131.033  1.00 47.53     0.003 A 
HETATM   17  CAT P69 A 202     -15.452  14.375 131.749  1.00 43.52     0.043 A 
HETATM   18  CAS P69 A 202     -14.161  13.921 132.015  1.00 47.42     0.126 A 
HETATM   19  FAX P69 A 202     -14.013  12.768 132.744  1.00 42.07    -0.205 F 
ENDBRANCH   1  13
BRANCH  12  20
HETATM   20  CAK P69 A 202     -10.149  15.957 132.430  1.00 33.46     0.040 A 
HETATM   21  CAN P69 A 202     -10.745  16.136 133.676  1.00 35.03     0.030 A 
HETATM   22  CAO P69 A 202     -10.084  16.891 134.657  1.00 34.10     0.002 A 
HETATM   23  CAP P69 A 202      -8.831  17.488 134.401  1.00 33.51     0.000 A 
HETATM   24  CAQ P69 A 202      -8.222  17.281 133.168  1.00 30.23     0.002 A 
HETATM   25  CAR P69 A 202      -8.876  16.506 132.212  1.00 30.63     0.030 A 
ENDBRANCH  12  20
TORSDOF 2
ENDMDL
MODEL 5
REMARK VINA RESULT:   -18.734      1.383      3.349
REMARK ITER + INTRA:          -23.338
REMARK INTER:                 -23.824
REMARK INTRA:                   0.485
REMARK UNBOUND:                -0.224
REMARK  2 active torsions:
REMARK  status: ('A' for Active; 'I' for Inactive)
REMARK    1  A    between atoms: CAL_7  and  CAH_8 
REMARK    2  A    between atoms: NAI_19  and  CAK_20 
ROOT
HETATM    1  CAH P59 A 201     -19.477  16.520 127.372  1.00 22.72     0.230 C 
HETATM    2  NAG P59 A 201     -20.226  16.886 126.138  1.00 20.91    -0.363 N 
ATOM      3  HAG P59 A 201     -20.267  16.245 125.346  1.00  0.00     0.162 HD
HETATM    4  CAE P59 A 201     -20.864  18.113 126.087  1.00 20.12     0.045 A 
HETATM    5  CAD P59 A 201     -21.222  18.636 124.865  1.00 20.63     0.030 A 
HETATM    6  CAC P59 A 201     -21.874  19.870 124.779  1.00 21.37     0.002 A 
HETATM    7  CAB P59 A 201     -22.162  20.533 125.948  1.00 23.94     0.001 A 
HETATM    8  CAA P59 A 201     -21.797  20.004 127.200  1.00 23.01     0.019 A 
HETATM    9  CAF P59 A 201     -21.113  18.807 127.270  1.00 23.66     0.059 A 
HETATM   10  CAJ P59 A 201     -20.847  18.201 128.501  1.00 25.37     0.262 C 
HETATM   11  OAM P59 A 201     -21.437  18.566 129.536  1.00 28.44    -0.267 OA
HETATM   12  NAI P59 A 201     -20.171  17.046 128.565  1.00 23.34    -0.288 N 
ENDROOT
BRANCH   1  13
HETATM   13  CAL P59 A 201     -18.164  17.045 127.360  1.00 21.79     0.023 A 
HETATM   14  CAW P59 A 201     -17.761  18.255 127.965  1.00 22.56     0.014 A 
HETATM   15  CAV P59 A 201     -16.421  18.694 127.886  1.00 22.43     0.001 A 
HETATM   16  CAU P59 A 201     -15.452  17.903 127.268  1.00 20.74     0.003 A 
HETATM   17  CAT P59 A 201     -15.854  16.713 126.688  1.00 22.12     0.043 A 
HETATM   18  CAS P59 A 201     -17.177  16.290 126.742  1.00 24.35     0.126 A 
HETATM   19  FAX P59 A 201     -17.512  15.179 126.221  1.00 27.37    -0.205 F 
ENDBRANCH   1  13
BRANCH  12  20
HETATM   20  CAK P59 A 201     -20.177  16.327 129.699  1.00 27.04     0.040 A 
HETATM   21  CAN P59 A 201     -20.602  14.991 129.574  1.00 25.91     0.030 A 
HETATM   22  CAO P59 A 201     -20.630  14.123 130.649  1.00 28.35     0.002 A 
HETATM   23  CAP P59 A 201     -20.281  14.591 131.899  1.00 31.73     0.000 A 
HETATM   24  CAQ P59 A 201     -19.891  15.926 132.060  1.00 37.83     0.002 A 
HETATM   25  CAR P59 A 201     -19.834  16.804 130.952  1.00 36.33     0.030 A 
ENDBRANCH  12  20
TORSDOF 2
REMARK  2 active torsions:
REMARK  status: ('A' for Active; 'I' for Inactive)
REMARK    1  A    between atoms: CAL_7  and  CAH_8 
REMARK    2  A    between atoms: NAI_19  and  CAK_20 
ROOT
HETATM    1  CAH P69 A 202     -12.165  15.857 130.080  1.00 42.53     0.230 C 
HETATM    2  NAG P69 A 202     -13.589  16.400 130.071  1.00 43.84    -0.363 N 
ATOM      3  HAG P69 A 202     -13.825  17.303 129.659  1.00  0.00     0.162 HD
HETATM    4  CAE P69 A 202     -14.555  15.577 130.667  1.00 37.67     0.045 A 
HETATM    5  CAD P69 A 202     -15.846  15.552 130.197  1.00 38.61     0.030 A 
HETATM    6  CAC P69 A 202     -16.801  14.708 130.766  1.00 33.75     0.002 A 
HETATM    7  CAB P69 A 202     -16.420  13.889 131.793  1.00 30.37     0.001 A 
HETATM    8  CAA P69 A 202     -15.104  13.900 132.248  1.00 33.11     0.019 A 
HETATM    9  CAF P69 A 202     -14.144  14.698 131.650  1.00 31.43     0.059 A 
HETATM   10  CAJ P69 A 202     -12.873  14.868 132.161  1.00 33.48     0.262 C 
HETATM   11  OAM P69 A 202     -12.721  14.763 133.367  1.00 40.02    -0.267 OA
HETATM   12  NAI P69 A 202     -11.913  15.563 131.518  1.00 37.68    -0.288 N 
ENDROOT
BRANCH   1  13
HETATM   13  CAL P69 A 202     -11.877  14.664 129.311  1.00 44.55     0.023 A 
HETATM   14  CAW P69 A 202     -11.263  13.524 129.866  1.00 43.30     0.014 A 
HETATM   15  CAV P69 A 202     -10.981  12.412 129.094  1.00 45.97     0.001 A 
HETATM   16  CAU P69 A 202     -11.265  12.412 127.732  1.00 47.53     0.003 A 
HETATM   17  CAT P69 A 202     -11.865  13.518 127.159  1.00 43.52     0.043 A 
HETATM   18  CAS P69 A 202     -12.164  14.634 127.939  1.00 47.42     0.126 A 
HETATM   19  FAX P69 A 202     -12.742  15.720 127.331  1.00 42.07    -0.205 F 
ENDBRANCH   1  13
BRANCH  12  20
HETATM   20  CAK P69 A 202     -10.792  16.027 132.107  1.00 33.46     0.040 A 
HETATM   21  CAN P69 A 202      -9.643  16.291 131.366  1.00 35.03     0.030 A 
HETATM   22  CAO P69 A 202      -8.524  16.853 132.001  1.00 34.10     0.002 A 
HETATM   23  CAP P69 A 202      -8.534  17.141 133.383  1.00 33.51     0.000 A 
HETATM   24  CAQ P69 A 202      -9.692  16.907 134.115  1.00 30.23     0.002 A 
HETATM   25  CAR P69 A 202     -10.806  16.375 133.467  1.00 30.63     0.030 A 
ENDBRANCH  12  20
TORSDOF 2
ENDMDL
MODEL 6
REMARK VINA RESULT:   -18.490      1.191      9.204
REMARK ITER + INTRA:          -23.038
REMARK INTER:                 -22.704
REMARK INTRA:                  -0.334
REMARK UNBOUND:                -0.224
REMARK  2 active torsions:
REMARK  status: ('A' for Active; 'I' for Inactive)
REMARK    1  A    between atoms: CAL_7  and  CAH_8 
REMARK    2  A    between atoms: NAI_19  and  CAK_20 
ROOT
HETATM    1  CAH P59 A 201     -12.325  15.308 129.969  1.00 22.72     0.230 C 
HETATM    2  NAG P59 A 201     -11.312  16.397 130.038  1.00 20.91    -0.363 N 
ATOM      3  HAG P59 A 201     -11.277  17.120 129.319  1.00  0.00     0.162 HD
HETATM    4  CAE P59 A 201     -10.420  16.410 131.096  1.00 20.12     0.045 A 
HETATM    5  CAD P59 A 201      -9.261  17.145 130.992  1.00 20.63     0.030 A 
HETATM    6  CAC P59 A 201      -8.343  17.184 132.045  1.00 21.37     0.002 A 
HETATM    7  CAB P59 A 201      -8.640  16.484 133.190  1.00 23.94     0.001 A 
HETATM    8  CAA P59 A 201      -9.823  15.730 133.302  1.00 23.01     0.019 A 
HETATM    9  CAF P59 A 201     -10.700  15.661 132.238  1.00 23.66     0.059 A 
HETATM   10  CAJ P59 A 201     -11.936  15.021 132.365  1.00 25.37     0.262 C 
HETATM   11  OAM P59 A 201     -12.397  14.735 133.486  1.00 28.44    -0.267 OA
HETATM   12  NAI P59 A 201     -12.779  14.945 131.327  1.00 23.34    -0.288 N 
ENDROOT
BRANCH   1  13
HETATM   13  CAL P59 A 201     -11.799  14.145 129.357  1.00 21.79     0.023 A 
HETATM   14  CAW P59 A 201     -11.397  12.975 130.035  1.00 22.56     0.014 A 
HETATM   15  CAV P59 A 201     -10.876  11.870 129.326  1.00 22.43     0.001 A 
HETATM   16  CAU P59 A 201     -10.813  11.888 127.933  1.00 20.74     0.003 A 
HETATM   17  CAT P59 A 201     -11.220  13.036 127.276  1.00 22.12     0.043 A 
HETATM   18  CAS P59 A 201     -11.710  14.134 127.972  1.00 24.35     0.126 A 
HETATM   19  FAX P59 A 201     -12.101  15.167 127.339  1.00 27.37    -0.205 F 
ENDBRANCH   1  13
BRANCH  12  20
HETATM   20  CAK P59 A 201     -14.062  14.603 131.528  1.00 27.04     0.040 A 
HETATM   21  CAN P59 A 201     -15.020  15.518 131.052  1.00 25.91     0.030 A 
HETATM   22  CAO P59 A 201     -16.378  15.285 131.159  1.00 28.35     0.002 A 
HETATM   23  CAP P59 A 201     -16.815  14.144 131.800  1.00 31.73     0.000 A 
HETATM   24  CAQ P59 A 201     -15.883  13.234 132.317  1.00 37.83     0.002 A 
HETATM   25  CAR P59 A 201     -14.494  13.461 132.179  1.00 36.33     0.030 A 
ENDBRANCH  12  20
TORSDOF 2
REMARK  2 active torsions:
REMARK  status: ('A' for Active; 'I' for Inactive)
REMARK    1  A    between atoms: CAL_7  and  CAH_8 
REMARK    2  A    between atoms: NAI_19  and  CAK_20 
ROOT
HETATM    1  CAH P69 A 202     -18.632  18.321 129.074  1.00 42.53     0.230 C 
HETATM    2  NAG P69 A 202     -18.874  17.850 130.503  1.00 43.84    -0.363 N 
ATOM      3  HAG P69 A 202     -18.549  18.379 131.313  1.00  0.00     0.162 HD
HETATM    4  CAE P69 A 202     -19.574  16.642 130.633  1.00 37.67     0.045 A 
HETATM    5  CAD P69 A 202     -20.412  16.425 131.700  1.00 38.61     0.030 A 
HETATM    6  CAC P69 A 202     -21.137  15.238 131.813  1.00 33.75     0.002 A 
HETATM    7  CAB P69 A 202     -21.008  14.297 130.827  1.00 30.37     0.001 A 
HETATM    8  CAA P69 A 202     -20.177  14.534 129.737  1.00 33.11     0.019 A 
HETATM    9  CAF P69 A 202     -19.499  15.732 129.596  1.00 31.43     0.059 A 
HETATM   10  CAJ P69 A 202     -18.542  15.955 128.626  1.00 33.48     0.262 C 
HETATM   11  OAM P69 A 202     -17.905  14.997 128.219  1.00 40.02    -0.267 OA
HETATM   12  NAI P69 A 202     -17.963  17.157 128.431  1.00 37.68    -0.288 N 
ENDROOT
BRANCH   1  13
HETATM   13  CAL P69 A 202     -19.777  18.694 128.268  1.00 44.55     0.023 A 
HETATM   14  CAW P69 A 202     -20.102  18.054 127.056  1.00 43.30     0.014 A 
HETATM   15  CAV P69 A 202     -21.189  18.454 126.301  1.00 45.97     0.001 A 
HETATM   16  CAU P69 A 202     -21.968  19.533 126.707  1.00 47.53     0.003 A 
HETATM   17  CAT P69 A 202     -21.671  20.183 127.892  1.00 43.52     0.043 A 
HETATM   18  CAS P69 A 202     -20.585  19.770 128.661  1.00 47.42     0.126 A 
HETATM   19  FAX P69 A 202     -20.310  20.452 129.821  1.00 42.07    -0.205 F 
ENDBRANCH   1  13
BRANCH  12  20
HETATM   20  CAK P69 A 202     -16.819  17.342 127.741  1.00 33.46     0.040 A 
HETATM   21  CAN P69 A 202     -15.615  17.592 128.395  1.00 35.03     0.030 A 
HETATM   22  CAO P69 A 202     -14.431  17.694 127.648  1.00 34.10     0.002 A 
HETATM   23  CAP P69 A 202     -14.438  17.566 126.242  1.00 33.51     0.000 A 
HETATM   24  CAQ P69 A 202     -15.636  17.285 125.595  1.00 30.23     0.002 A 
HETATM   25  CAR P69 A 202     -16.800  17.157 126.351  1.00 30.63     0.030 A 
ENDBRANCH  12  20
TORSDOF 2
ENDMDL
MODEL 7
REMARK VINA RESULT:   -18.452      1.268      3.675
REMARK ITER + INTRA:          -22.991
REMARK INTER:                 -22.565
REMARK INTRA:                  -0.426
REMARK UNBOUND:                -0.224
REMARK  2 active torsions:
REMARK  status: ('A' for Active; 'I' for Inactive)
REMARK    1  A    between atoms: CAL_7  and  CAH_8 
REMARK    2  A    between atoms: NAI_19  and  CAK_20 
ROOT
HETATM    1  CAH P59 A 201     -19.151  18.111 129.219  1.00 22.72     0.230 C 
HETATM    2  NAG P59 A 201     -19.987  19.342 129.214  1.00 20.91    -0.363 N 
ATOM      3  HAG P59 A 201     -19.848  20.068 129.919  1.00  0.00     0.162 HD
HETATM    4  CAE P59 A 201     -20.955  19.485 128.237  1.00 20.12     0.045 A 
HETATM    5  CAD P59 A 201     -21.975  20.391 128.425  1.00 20.63     0.030 A 
HETATM    6  CAC P59 A 201     -22.965  20.564 127.453  1.00 21.37     0.002 A 
HETATM    7  CAB P59 A 201     -22.880  19.819 126.302  1.00 23.94     0.001 A 
HETATM    8  CAA P59 A 201     -21.840  18.890 126.104  1.00 23.01     0.019 A 
HETATM    9  CAF P59 A 201     -20.895  18.694 127.090  1.00 23.66     0.059 A 
HETATM   10  CAJ P59 A 201     -19.787  17.871 126.871  1.00 25.37     0.262 C 
HETATM   11  OAM P59 A 201     -19.475  17.509 125.721  1.00 28.44    -0.267 OA
HETATM   12  NAI P59 A 201     -18.878  17.673 127.835  1.00 23.34    -0.288 N 
ENDROOT
BRANCH   1  13
HETATM   13  CAL P59 A 201     -19.793  17.048 129.897  1.00 21.79     0.023 A 
HETATM   14  CAW P59 A 201     -20.441  15.957 129.280  1.00 22.56     0.014 A 
HETATM   15  CAV P59 A 201     -21.060  14.950 130.053  1.00 22.43     0.001 A 
HETATM   16  CAU P59 A 201     -20.981  14.977 131.445  1.00 20.74     0.003 A 
HETATM   17  CAT P59 A 201     -20.334  16.045 132.042  1.00 22.12     0.043 A 
HETATM   18  CAS P59 A 201     -19.745  17.051 131.285  1.00 24.35     0.126 A 
HETATM   19  FAX P59 A 201     -19.134  18.007 131.860  1.00 27.37    -0.205 F 
ENDBRANCH   1  13
BRANCH  12  20
HETATM   20  CAK P59 A 201     -17.685  17.136 127.532  1.00 27.04     0.040 A 
HETATM   21  CAN P59 A 201     -16.604  18.036 127.482  1.00 25.91     0.030 A 
HETATM   22  CAO P59 A 201     -15.313  17.623 127.215  1.00 28.35     0.002 A 
HETATM   23  CAP P59 A 201     -15.078  16.292 126.935  1.00 31.73     0.000 A 
HETATM   24  CAQ P59 A 201     -16.142  15.381 126.940  1.00 37.83     0.002 A 
HETATM   25  CAR P59 A 201     -17.457  15.802 127.244  1.00 36.33     0.030 A 
ENDBRANCH  12  20
TORSDOF 2
REMARK  2 active torsions:
REMARK  status: ('A' for Active; 'I' for Inactive)
REMARK    1  A    between atoms: CAL_7  and  CAH_8 
REMARK    2  A    between atoms: NAI_19  and  CAK_20 
ROOT
HETATM    1  CAH P69 A 202     -12.428  13.384 130.932  1.00 42.53     0.230 C 
HETATM    2  NAG P69 A 202     -11.273  13.614 131.899  1.00 43.84    -0.363 N 
ATOM      3  HAG P69 A 202     -11.050  12.956 132.646  1.00  0.00     0.162 HD
HETATM    4  CAE P69 A 202     -10.536  14.789 131.694  1.00 37.67     0.045 A 
HETATM    5  CAD P69 A 202      -9.190  14.833 131.968  1.00 38.61     0.030 A 
HETATM    6  CAC P69 A 202      -8.447  15.990 131.733  1.00 33.75     0.002 A 
HETATM    7  CAB P69 A 202      -9.084  17.079 131.205  1.00 30.37     0.001 A 
HETATM    8  CAA P69 A 202     -10.442  17.021 130.906  1.00 33.11     0.019 A 
HETATM    9  CAF P69 A 202     -11.169  15.857 131.090  1.00 31.43     0.059 A 
HETATM   10  CAJ P69 A 202     -12.543  15.792 130.965  1.00 33.48     0.262 C 
HETATM   11  OAM P69 A 202     -13.188  16.799 131.204  1.00 40.02    -0.267 OA
HETATM   12  NAI P69 A 202     -13.230  14.634 131.043  1.00 37.68    -0.288 N 
ENDROOT
BRANCH   1  13
HETATM   13  CAL P69 A 202     -12.122  13.158 129.534  1.00 44.55     0.023 A 
HETATM   14  CAW P69 A 202     -12.774  13.840 128.487  1.00 43.30     0.014 A 
HETATM   15  CAV P69 A 202     -12.473  13.580 127.162  1.00 45.97     0.001 A 
HETATM   16  CAU P69 A 202     -11.539  12.603 126.834  1.00 47.53     0.003 A 
HETATM   17  CAT P69 A 202     -10.885  11.914 127.840  1.00 43.52     0.043 A 
HETATM   18  CAS P69 A 202     -11.177  12.187 129.176  1.00 47.42     0.126 A 
HETATM   19  FAX P69 A 202     -10.522  11.471 130.146  1.00 42.07    -0.205 F 
ENDBRANCH   1  13
BRANCH  12  20
HETATM   20  CAK P69 A 202     -14.559  14.557 131.254  1.00 33.46     0.040 A 
HETATM   21  CAN P69 A 202     -15.454  15.313 130.500  1.00 35.03     0.030 A 
HETATM   22  CAO P69 A 202     -16.834  15.144 130.691  1.00 34.10     0.002 A 
HETATM   23  CAP P69 A 202     -17.336  14.233 131.646  1.00 33.51     0.000 A 
HETATM   24  CAQ P69 A 202     -16.442  13.457 132.375  1.00 30.23     0.002 A 
HETATM   25  CAR P69 A 202     -15.074  13.614 132.156  1.00 30.63     0.030 A 
ENDBRANCH  12  20
TORSDOF 2
ENDMDL
MODEL 8
REMARK VINA RESULT:   -18.282      1.199      3.571
REMARK ITER + INTRA:          -22.781
REMARK INTER:                 -22.557
REMARK INTRA:                  -0.224
REMARK UNBOUND:                -0.224
REMARK  2 active torsions:
REMARK  status: ('A' for Active; 'I' for Inactive)
REMARK    1  A    between atoms: CAL_7  and  CAH_8 
REMARK    2  A    between atoms: NAI_19  and  CAK_20 
ROOT
HETATM    1  CAH P59 A 201     -18.954  17.861 129.372  1.00 22.72     0.230 C 
HETATM    2  NAG P59 A 201     -19.806  19.082 129.400  1.00 20.91    -0.363 N 
ATOM      3  HAG P59 A 201     -19.701  19.773 130.144  1.00  0.00     0.162 HD
HETATM    4  CAE P59 A 201     -20.744  19.261 128.398  1.00 20.12     0.045 A 
HETATM    5  CAD P59 A 201     -21.781  20.144 128.596  1.00 20.63     0.030 A 
HETATM    6  CAC P59 A 201     -22.741  20.353 127.601  1.00 21.37     0.002 A 
HETATM    7  CAB P59 A 201     -22.607  19.666 126.418  1.00 23.94     0.001 A 
HETATM    8  CAA P59 A 201     -21.549  18.762 126.210  1.00 23.01     0.019 A 
HETATM    9  CAF P59 A 201     -20.634  18.529 127.217  1.00 23.66     0.059 A 
HETATM   10  CAJ P59 A 201     -19.509  17.730 126.995  1.00 25.37     0.262 C 
HETATM   11  OAM P59 A 201     -19.154  17.430 125.840  1.00 28.44    -0.267 OA
HETATM   12  NAI P59 A 201     -18.629  17.496 127.979  1.00 23.34    -0.288 N 
ENDROOT
BRANCH   1  13
HETATM   13  CAL P59 A 201     -19.604  16.758 129.976  1.00 21.79     0.023 A 
HETATM   14  CAW P59 A 201     -20.230  15.700 129.284  1.00 22.56     0.014 A 
HETATM   15  CAV P59 A 201     -20.859  14.648 129.986  1.00 22.43     0.001 A 
HETATM   16  CAU P59 A 201     -20.812  14.598 131.379  1.00 20.74     0.003 A 
HETATM   17  CAT P59 A 201     -20.186  15.634 132.048  1.00 22.12     0.043 A 
HETATM   18  CAS P59 A 201     -19.587  16.684 131.362  1.00 24.35     0.126 A 
HETATM   19  FAX P59 A 201     -18.996  17.610 132.003  1.00 27.37    -0.205 F 
ENDBRANCH   1  13
BRANCH  12  20
HETATM   20  CAK P59 A 201     -17.420  16.989 127.691  1.00 27.04     0.040 A 
HETATM   21  CAN P59 A 201     -16.421  17.930 127.379  1.00 25.91     0.030 A 
HETATM   22  CAO P59 A 201     -15.121  17.557 127.094  1.00 28.35     0.002 A 
HETATM   23  CAP P59 A 201     -14.799  16.216 127.060  1.00 31.73     0.000 A 
HETATM   24  CAQ P59 A 201     -15.783  15.256 127.327  1.00 37.83     0.002 A 
HETATM   25  CAR P59 A 201     -17.105  15.642 127.649  1.00 36.33     0.030 A 
ENDBRANCH  12  20
TORSDOF 2
REMARK  2 active torsions:
REMARK  status: ('A' for Active; 'I' for Inactive)
REMARK    1  A    between atoms: CAL_7  and  CAH_8 
REMARK    2  A    between atoms: NAI_19  and  CAK_20 
ROOT
HETATM    1  CAH P69 A 202     -12.638  15.363 130.363  1.00 42.53     0.230 C 
HETATM    2  NAG P69 A 202     -11.968  16.615 130.917  1.00 43.84    -0.363 N 
ATOM      3  HAG P69 A 202     -11.985  17.506 130.421  1.00  0.00     0.162 HD
HETATM    4  CAE P69 A 202     -11.327  16.461 132.154  1.00 37.67     0.045 A 
HETATM    5  CAD P69 A 202     -11.277  17.498 133.055  1.00 38.61     0.030 A 
HETATM    6  CAC P69 A 202     -10.670  17.337 134.301  1.00 33.75     0.002 A 
HETATM    7  CAB P69 A 202     -10.138  16.117 134.616  1.00 30.37     0.001 A 
HETATM    8  CAA P69 A 202     -10.213  15.064 133.710  1.00 33.11     0.019 A 
HETATM    9  CAF P69 A 202     -10.862  15.207 132.495  1.00 31.43     0.059 A 
HETATM   10  CAJ P69 A 202     -10.825  14.252 131.498  1.00 33.48     0.262 C 
HETATM   11  OAM P69 A 202      -9.844  13.530 131.432  1.00 40.02    -0.267 OA
HETATM   12  NAI P69 A 202     -11.544  14.353 130.361  1.00 37.68    -0.288 N 
ENDROOT
BRANCH   1  13
HETATM   13  CAL P69 A 202     -13.769  14.812 131.080  1.00 44.55     0.023 A 
HETATM   14  CAW P69 A 202     -13.685  13.643 131.862  1.00 43.30     0.014 A 
HETATM   15  CAV P69 A 202     -14.793  13.132 132.513  1.00 45.97     0.001 A 
HETATM   16  CAU P69 A 202     -16.034  13.746 132.374  1.00 47.53     0.003 A 
HETATM   17  CAT P69 A 202     -16.148  14.893 131.610  1.00 43.52     0.043 A 
HETATM   18  CAS P69 A 202     -15.028  15.418 130.966  1.00 47.42     0.126 A 
HETATM   19  FAX P69 A 202     -15.184  16.546 130.201  1.00 42.07    -0.205 F 
ENDBRANCH   1  13
BRANCH  12  20
HETATM   20  CAK P69 A 202     -11.297  13.638 129.245  1.00 33.46     0.040 A 
HETATM   21  CAN P69 A 202     -10.953  14.262 128.048  1.00 35.03     0.030 A 
HETATM   22  CAO P69 A 202     -10.622  13.481 126.931  1.00 34.10     0.002 A 
HETATM   23  CAP P69 A 202     -10.646  12.070 126.990  1.00 33.51     0.000 A 
HETATM   24  CAQ P69 A 202     -10.957  11.449 128.193  1.00 30.23     0.002 A 
HETATM   25  CAR P69 A 202     -11.257  12.236 129.304  1.00 30.63     0.030 A 
ENDBRANCH  12  20
TORSDOF 2
ENDMDL
MODEL 9
REMARK VINA RESULT:   -18.172      1.854      9.000
REMARK ITER + INTRA:          -22.646
REMARK INTER:                 -21.995
REMARK INTRA:                  -0.651
REMARK UNBOUND:                -0.224
REMARK  2 active torsions:
REMARK  status: ('A' for Active; 'I' for Inactive)
REMARK    1  A    between atoms: CAL_7  and  CAH_8 
REMARK    2  A    between atoms: NAI_19  and  CAK_20 
ROOT
HETATM    1  CAH P59 A 201     -12.326  13.356 131.266  1.00 22.72     0.230 C 
HETATM    2  NAG P59 A 201     -11.571  12.234 130.642  1.00 20.91    -0.363 N 
ATOM      3  HAG P59 A 201     -11.234  11.456 131.209  1.00  0.00     0.162 HD
HETATM    4  CAE P59 A 201     -11.337  12.267 129.279  1.00 20.12     0.045 A 
HETATM    5  CAD P59 A 201     -10.343  11.478 128.746  1.00 20.63     0.030 A 
HETATM    6  CAC P59 A 201     -10.086  11.484 127.371  1.00 21.37     0.002 A 
HETATM    7  CAB P59 A 201     -10.866  12.284 126.570  1.00 23.94     0.001 A 
HETATM    8  CAA P59 A 201     -11.883  13.093 127.109  1.00 23.01     0.019 A 
HETATM    9  CAF P59 A 201     -12.097  13.114 128.473  1.00 23.66     0.059 A 
HETATM   10  CAJ P59 A 201     -13.176  13.813 129.020  1.00 25.37     0.262 C 
HETATM   11  OAM P59 A 201     -14.116  14.205 128.304  1.00 28.44    -0.267 OA
HETATM   12  NAI P59 A 201     -13.373  13.842 130.346  1.00 23.34    -0.288 N 
ENDROOT
BRANCH   1  13
HETATM   13  CAL P59 A 201     -11.477  14.443 131.580  1.00 21.79     0.023 A 
HETATM   14  CAW P59 A 201     -10.346  14.840 130.834  1.00 22.56     0.014 A 
HETATM   15  CAV P59 A 201      -9.559  15.940 131.242  1.00 22.43     0.001 A 
HETATM   16  CAU P59 A 201      -9.926  16.700 132.352  1.00 20.74     0.003 A 
HETATM   17  CAT P59 A 201     -11.042  16.311 133.070  1.00 22.12     0.043 A 
HETATM   18  CAS P59 A 201     -11.805  15.214 132.687  1.00 24.35     0.126 A 
HETATM   19  FAX P59 A 201     -12.841  14.895 133.352  1.00 27.37    -0.205 F 
ENDBRANCH   1  13
BRANCH  12  20
HETATM   20  CAK P59 A 201     -14.552  14.252 130.840  1.00 27.04     0.040 A 
HETATM   21  CAN P59 A 201     -15.377  13.242 131.369  1.00 25.91     0.030 A 
HETATM   22  CAO P59 A 201     -16.605  13.518 131.941  1.00 28.35     0.002 A 
HETATM   23  CAP P59 A 201     -17.065  14.818 131.948  1.00 31.73     0.000 A 
HETATM   24  CAQ P59 A 201     -16.281  15.838 131.394  1.00 37.83     0.002 A 
HETATM   25  CAR P59 A 201     -15.012  15.557 130.837  1.00 36.33     0.030 A 
ENDBRANCH  12  20
TORSDOF 2
REMARK  2 active torsions:
REMARK  status: ('A' for Active; 'I' for Inactive)
REMARK    1  A    between atoms: CAL_7  and  CAH_8 
REMARK    2  A    between atoms: NAI_19  and  CAK_20 
ROOT
HETATM    1  CAH P69 A 202     -18.721  18.365 128.805  1.00 42.53     0.230 C 
HETATM    2  NAG P69 A 202     -19.003  18.000 130.257  1.00 43.84    -0.363 N 
ATOM      3  HAG P69 A 202     -18.747  18.613 131.031  1.00  0.00     0.162 HD
HETATM    4  CAE P69 A 202     -19.638  16.767 130.460  1.00 37.67     0.045 A 
HETATM    5  CAD P69 A 202     -20.512  16.588 131.505  1.00 38.61     0.030 A 
HETATM    6  CAC P69 A 202     -21.172  15.372 131.689  1.00 33.75     0.002 A 
HETATM    7  CAB P69 A 202     -20.944  14.363 130.794  1.00 30.37     0.001 A 
HETATM    8  CAA P69 A 202     -20.076  14.559 129.723  1.00 33.11     0.019 A 
HETATM    9  CAF P69 A 202     -19.462  15.781 129.509  1.00 31.43     0.059 A 
HETATM   10  CAJ P69 A 202     -18.474  15.979 128.565  1.00 33.48     0.262 C 
HETATM   11  OAM P69 A 202     -17.765  15.032 128.269  1.00 40.02    -0.267 OA
HETATM   12  NAI P69 A 202     -17.957  17.195 128.293  1.00 37.68    -0.288 N 
ENDROOT
BRANCH   1  13
HETATM   13  CAL P69 A 202     -19.846  18.599 127.922  1.00 44.55     0.023 A 
HETATM   14  CAW P69 A 202     -20.020  17.912 126.704  1.00 43.30     0.014 A 
HETATM   15  CAV P69 A 202     -21.094  18.180 125.875  1.00 45.97     0.001 A 
HETATM   16  CAU P69 A 202     -22.011  19.171 126.212  1.00 47.53     0.003 A 
HETATM   17  CAT P69 A 202     -21.863  19.865 127.399  1.00 43.52     0.043 A 
HETATM   18  CAS P69 A 202     -20.790  19.585 128.243  1.00 47.42     0.126 A 
HETATM   19  FAX P69 A 202     -20.666  20.307 129.403  1.00 42.07    -0.205 F 
ENDBRANCH   1  13
BRANCH  12  20
HETATM   20  CAK P69 A 202     -16.794  17.391 127.639  1.00 33.46     0.040 A 
HETATM   21  CAN P69 A 202     -15.620  17.689 128.327  1.00 35.03     0.030 A 
HETATM   22  CAO P69 A 202     -14.413  17.803 127.620  1.00 34.10     0.002 A 
HETATM   23  CAP P69 A 202     -14.367  17.638 126.218  1.00 33.51     0.000 A 
HETATM   24  CAQ P69 A 202     -15.533  17.309 125.537  1.00 30.23     0.002 A 
HETATM   25  CAR P69 A 202     -16.720  17.171 126.255  1.00 30.63     0.030 A 
ENDBRANCH  12  20
TORSDOF 2
ENDMDL
