REMARK  2 active torsions:
REMARK  status: ('A' for Active; 'I' for Inactive)
REMARK    1  A    between atoms: CAL_7  and  CAH_8 
REMARK    2  A    between atoms: NAI_19  and  CAK_20 
ROOT
HETATM    1  CAH P59 A 201     -19.097  17.872 128.953  1.00 22.72     0.230 C 
HETATM    2  NAG P59 A 201     -20.025  19.036 128.928  1.00 20.91    -0.363 N 
ATOM      3  HAG P59 A 201     -19.983  19.750 129.656  1.00  0.00     0.162 HD
HETATM    4  CAE P59 A 201     -20.945  19.131 127.899  1.00 20.12     0.045 A 
HETATM    5  CAD P59 A 201     -22.041  19.951 128.048  1.00 20.63     0.030 A 
HETATM    6  CAC P59 A 201     -22.985  20.074 127.024  1.00 21.37     0.002 A 
HETATM    7  CAB P59 A 201     -22.777  19.369 125.863  1.00 23.94     0.001 A 
HETATM    8  CAA P59 A 201     -21.659  18.529 125.705  1.00 23.01     0.019 A 
HETATM    9  CAF P59 A 201     -20.758  18.379 126.740  1.00 23.66     0.059 A 
HETATM   10  CAJ P59 A 201     -19.579  17.649 126.567  1.00 25.37     0.262 C 
HETATM   11  OAM P59 A 201     -19.175  17.344 125.429  1.00 28.44    -0.267 OA
HETATM   12  NAI P59 A 201     -18.713  17.495 127.578  1.00 23.34    -0.288 N 
ENDROOT
BRANCH   1  13
HETATM   13  CAL P59 A 201     -19.691  16.745 129.568  1.00 21.79     0.023 A 
HETATM   14  CAW P59 A 201     -20.188  15.611 128.891  1.00 22.56     0.014 A 
HETATM   15  CAV P59 A 201     -20.772  14.540 129.603  1.00 22.43     0.001 A 
HETATM   16  CAU P59 A 201     -20.805  14.551 130.997  1.00 20.74     0.003 A 
HETATM   17  CAT P59 A 201     -20.305  15.662 131.653  1.00 22.12     0.043 A 
HETATM   18  CAS P59 A 201     -19.752  16.729 130.955  1.00 24.35     0.126 A 
HETATM   19  FAX P59 A 201     -19.277  17.726 131.586  1.00 27.37    -0.205 F 
ENDBRANCH   1  13
BRANCH  12  20
HETATM   20  CAK P59 A 201     -17.467  17.059 127.333  1.00 27.04     0.040 A 
HETATM   21  CAN P59 A 201     -16.514  18.057 127.055  1.00 25.91     0.030 A 
HETATM   22  CAO P59 A 201     -15.185  17.761 126.816  1.00 28.35     0.002 A 
HETATM   23  CAP P59 A 201     -14.785  16.441 126.795  1.00 31.73     0.000 A 
HETATM   24  CAQ P59 A 201     -15.720  15.425 127.030  1.00 37.83     0.002 A 
HETATM   25  CAR P59 A 201     -17.073  15.733 127.305  1.00 36.33     0.030 A 
ENDBRANCH  12  20
TORSDOF 2
