REMARK global search 
REMARK  Name = LIGAND
REMARK  8 active torsions:
REMARK  status: ('A' for Active; 'I' for Inactive)
REMARK    1  A    between atoms: N_1  and  C_5
REMARK    2  A    between atoms: C_3  and  C_15
REMARK    3  A    between atoms: C_5  and  C_6
REMARK    4  A    between atoms: C_5  and  C_12
REMARK    5  A    between atoms: C_15  and  C_16
REMARK    6  A    between atoms: C_15  and  C_20
REMARK    7  A    between atoms: C_16  and  C_17
REMARK    8  A    between atoms: C_20  and  N_21
REMARK                            x       y       z     vdW  Elec       q    Type
REMARK                         _______ _______ _______ _____ _____    ______ ____
ROOT
ATOM      1  N   UNL     1      66.465  31.857 118.154  0.00  0.00    -0.303 N 
ATOM      2  H   UNL     1      65.917  32.537 117.607  0.00  0.00    +0.149 HD
ATOM      3  C   UNL     1      66.318  30.546 117.866  0.00  0.00    +0.218 C 
ATOM      4  O   UNL     1      66.941  29.639 118.471  0.00  0.00    -0.275 OA
ENDROOT
BRANCH   1   5
ATOM      5  C   UNL     1      67.385  32.389 119.230  0.00  0.00    +0.164 C 
BRANCH   5   6
ATOM      6  C   UNL     1      66.566  32.330 120.597  0.00  0.00    +0.234 C 
ATOM      7  N   UNL     1      67.117  31.531 121.552  0.00  0.00    -0.317 N 
ATOM      8  H   UNL     1      67.996  31.045 121.323  0.00  0.00    +0.148 HD
ATOM      9  C   UNL     1      66.539  31.314 122.899  0.00  0.00    +0.128 C 
ATOM     10  O   UNL     1      65.503  32.971 120.746  0.00  0.00    -0.274 OA
ENDBRANCH   5   6
BRANCH   5  12
ATOM     11  C   UNL     1      68.845  33.783 117.576  0.00  0.00    +0.013 C 
ATOM     12  C   UNL     1      67.975  33.846 118.860  0.00  0.00    -0.011 C 
ATOM     13  C   UNL     1      68.854  34.447 120.023  0.00  0.00    +0.013 C 
ATOM     14  C   UNL     1      66.861  34.924 118.565  0.00  0.00    +0.013 C 
ENDBRANCH   5  12
ENDBRANCH   1   5
BRANCH   3  15
ATOM     15  C   UNL     1      65.328  30.169 116.725  0.00  0.00    +0.093 C 
BRANCH  15  16
ATOM     16  C   UNL     1      64.096  29.323 117.248  0.00  0.00    +0.017 C 
BRANCH  16  17
ATOM     17  C   UNL     1      62.964  30.013 118.050  0.00  0.00    -0.016 C 
ATOM     18  C   UNL     1      62.019  28.953 118.586  0.00  0.00    +0.007 C 
ATOM     19  C   UNL     1      62.098  30.887 117.116  0.00  0.00    +0.007 C 
ENDBRANCH  16  17
ENDBRANCH  15  16
BRANCH  15  20
ATOM     20  C   UNL     1      66.180  29.327 115.704  0.00  0.00    +0.125 C 
BRANCH  20  21
ATOM     21  N   UNL     1      65.563  29.212 114.386  0.00  0.00    -0.298 N 
ATOM     22  O   UNL     1      65.418  30.295 113.715  0.00  0.00    -0.421 OA
ATOM     23  C   UNL     1      65.135  28.064 113.856  0.00  0.00    +0.131 C 
ATOM     24  O   UNL     1      64.620  27.971 112.794  0.00  0.00    -0.546 OA
ENDBRANCH  20  21
ENDBRANCH  15  20
ENDBRANCH   3  15
TORSDOF 8
