MODEL 1
REMARK VINA RESULT:      -6.8      0.000      0.000
REMARK  Name = LIGAND
REMARK  14 active torsions:
REMARK  status: ('A' for Active; 'I' for Inactive)
REMARK    1  A    between atoms: C_1  and  C_9
REMARK    2  A    between atoms: C_5  and  C_9
REMARK    3  A    between atoms: C_9  and  C_10
REMARK    4  A    between atoms: C_9  and  C_12
REMARK    5  A    between atoms: C_10  and  C_16
REMARK    6  A    between atoms: C_10  and  N_18
REMARK    7  A    between atoms: N_20  and  C_22
REMARK    8  A    between atoms: C_26  and  C_30
REMARK    9  A    between atoms: C_30  and  C_37
REMARK   10  A    between atoms: C_30  and  C_40
REMARK   11  A    between atoms: C_32  and  C_35
REMARK   12  A    between atoms: C_32  and  N_48
REMARK   13  A    between atoms: C_35  and  C_37
REMARK   14  A    between atoms: C_35  and  C_44
REMARK                            x       y       z     vdW  Elec       q    Type
REMARK                         _______ _______ _______ _____ _____    ______ ____
ROOT
ATOM      1  N   UNL     1      66.046  31.416 118.188  0.00  0.00    -0.303 N 
ATOM      2  H   UNL     1      65.280  32.077 117.994  0.00  0.00    +0.149 HD
ATOM      3  C   UNL     1      65.863  30.119 117.862  0.00  0.00    +0.218 C 
ATOM      4  O   UNL     1      66.735  29.236 118.055  0.00  0.00    -0.275 OA
ENDROOT
BRANCH   1   5
ATOM      5  C   UNL     1      67.308  31.959 118.821  0.00  0.00    +0.164 C 
BRANCH   5   6
ATOM      6  C   UNL     1      66.899  32.483 120.271  0.00  0.00    +0.234 C 
ATOM      7  N   UNL     1      67.892  32.409 121.200  0.00  0.00    -0.317 N 
ATOM      8  H   UNL     1      68.803  32.034 120.900  0.00  0.00    +0.148 HD
ATOM      9  C   UNL     1      67.750  32.831 122.614  0.00  0.00    +0.128 C 
ATOM     10  O   UNL     1      65.749  32.913 120.506  0.00  0.00    -0.274 OA
ENDBRANCH   5   6
BRANCH   5  12
ATOM     11  C   UNL     1      67.877  32.701 116.385  0.00  0.00    +0.013 C 
ATOM     12  C   UNL     1      68.032  33.060 117.887  0.00  0.00    -0.011 C 
ATOM     13  C   UNL     1      69.570  33.196 118.207  0.00  0.00    +0.013 C 
ATOM     14  C   UNL     1      67.434  34.513 118.039  0.00  0.00    +0.013 C 
ENDBRANCH   5  12
ENDBRANCH   1   5
BRANCH   3  15
ATOM     15  C   UNL     1      64.503  29.728 117.215  0.00  0.00    +0.093 C 
BRANCH  15  16
ATOM     16  C   UNL     1      63.462  29.184 118.277  0.00  0.00    +0.017 C 
BRANCH  16  17
ATOM     17  C   UNL     1      62.022  29.754 118.317  0.00  0.00    -0.016 C 
ATOM     18  C   UNL     1      61.036  28.634 118.039  0.00  0.00    +0.007 C 
ATOM     19  C   UNL     1      61.812  30.766 117.168  0.00  0.00    +0.007 C 
ENDBRANCH  16  17
ENDBRANCH  15  16
BRANCH  15  20
ATOM     20  C   UNL     1      64.854  28.608 116.166  0.00  0.00    +0.125 C 
BRANCH  20  21
ATOM     21  N   UNL     1      64.877  29.088 114.787  0.00  0.00    -0.298 N 
ATOM     22  O   UNL     1      64.549  30.313 114.593  0.00  0.00    -0.421 OA
ATOM     23  C   UNL     1      65.200  28.333 113.735  0.00  0.00    +0.131 C 
ATOM     24  O   UNL     1      65.204  28.717 112.615  0.00  0.00    -0.546 OA
ENDBRANCH  20  21
ENDBRANCH  15  20
ENDBRANCH   3  15
TORSDOF 8
ENDMDL
MODEL 2
REMARK VINA RESULT:      -6.7      2.209      3.596
REMARK  Name = LIGAND
REMARK  14 active torsions:
REMARK  status: ('A' for Active; 'I' for Inactive)
REMARK    1  A    between atoms: C_1  and  C_9
REMARK    2  A    between atoms: C_5  and  C_9
REMARK    3  A    between atoms: C_9  and  C_10
REMARK    4  A    between atoms: C_9  and  C_12
REMARK    5  A    between atoms: C_10  and  C_16
REMARK    6  A    between atoms: C_10  and  N_18
REMARK    7  A    between atoms: N_20  and  C_22
REMARK    8  A    between atoms: C_26  and  C_30
REMARK    9  A    between atoms: C_30  and  C_37
REMARK   10  A    between atoms: C_30  and  C_40
REMARK   11  A    between atoms: C_32  and  C_35
REMARK   12  A    between atoms: C_32  and  N_48
REMARK   13  A    between atoms: C_35  and  C_37
REMARK   14  A    between atoms: C_35  and  C_44
REMARK                            x       y       z     vdW  Elec       q    Type
REMARK                         _______ _______ _______ _____ _____    ______ ____
ROOT
ATOM      1  N   UNL     1      65.808  31.085 117.971  0.00  0.00    -0.303 N 
ATOM      2  H   UNL     1      65.234  31.904 117.723  0.00  0.00    +0.149 HD
ATOM      3  C   UNL     1      65.509  29.902 117.392  0.00  0.00    +0.218 C 
ATOM      4  O   UNL     1      66.146  28.847 117.625  0.00  0.00    -0.275 OA
ENDROOT
BRANCH   1   5
ATOM      5  C   UNL     1      66.934  31.281 118.962  0.00  0.00    +0.164 C 
BRANCH   5   6
ATOM      6  C   UNL     1      66.268  31.827 120.304  0.00  0.00    +0.234 C 
ATOM      7  N   UNL     1      66.595  31.124 121.424  0.00  0.00    -0.317 N 
ATOM      8  H   UNL     1      67.231  30.321 121.317  0.00  0.00    +0.148 HD
ATOM      9  C   UNL     1      66.098  31.436 122.784  0.00  0.00    +0.128 C 
ATOM     10  O   UNL     1      65.504  32.817 120.295  0.00  0.00    -0.274 OA
ENDBRANCH   5   6
BRANCH   5  12
ATOM     11  C   UNL     1      67.525  33.374 117.519  0.00  0.00    +0.013 C 
ATOM     12  C   UNL     1      68.111  32.213 118.367  0.00  0.00    -0.011 C 
ATOM     13  C   UNL     1      69.117  31.402 117.464  0.00  0.00    +0.013 C 
ATOM     14  C   UNL     1      68.995  32.904 119.477  0.00  0.00    +0.013 C 
ENDBRANCH   5  12
ENDBRANCH   1   5
BRANCH   3  15
ATOM     15  C   UNL     1      64.316  29.875 116.392  0.00  0.00    +0.093 C 
BRANCH  15  16
ATOM     16  C   UNL     1      64.716  30.415 114.959  0.00  0.00    +0.017 C 
BRANCH  16  17
ATOM     17  C   UNL     1      66.181  30.307 114.469  0.00  0.00    -0.016 C 
ATOM     18  C   UNL     1      66.738  31.704 114.258  0.00  0.00    +0.007 C 
ATOM     19  C   UNL     1      66.236  29.641 113.075  0.00  0.00    +0.007 C 
ENDBRANCH  16  17
ENDBRANCH  15  16
BRANCH  15  20
ATOM     20  C   UNL     1      63.217  30.797 117.040  0.00  0.00    +0.125 C 
BRANCH  20  21
ATOM     21  N   UNL     1      61.962  30.103 117.314  0.00  0.00    -0.298 N 
ATOM     22  O   UNL     1      60.882  30.788 117.207  0.00  0.00    -0.421 OA
ATOM     23  C   UNL     1      61.877  28.821 117.676  0.00  0.00    +0.131 C 
ATOM     24  O   UNL     1      60.861  28.260 117.914  0.00  0.00    -0.546 OA
ENDBRANCH  20  21
ENDBRANCH  15  20
ENDBRANCH   3  15
TORSDOF 8
ENDMDL
MODEL 3
REMARK VINA RESULT:      -6.5      3.031      6.582
REMARK  Name = LIGAND
REMARK  14 active torsions:
REMARK  status: ('A' for Active; 'I' for Inactive)
REMARK    1  A    between atoms: C_1  and  C_9
REMARK    2  A    between atoms: C_5  and  C_9
REMARK    3  A    between atoms: C_9  and  C_10
REMARK    4  A    between atoms: C_9  and  C_12
REMARK    5  A    between atoms: C_10  and  C_16
REMARK    6  A    between atoms: C_10  and  N_18
REMARK    7  A    between atoms: N_20  and  C_22
REMARK    8  A    between atoms: C_26  and  C_30
REMARK    9  A    between atoms: C_30  and  C_37
REMARK   10  A    between atoms: C_30  and  C_40
REMARK   11  A    between atoms: C_32  and  C_35
REMARK   12  A    between atoms: C_32  and  N_48
REMARK   13  A    between atoms: C_35  and  C_37
REMARK   14  A    between atoms: C_35  and  C_44
REMARK                            x       y       z     vdW  Elec       q    Type
REMARK                         _______ _______ _______ _____ _____    ______ ____
ROOT
ATOM      1  N   UNL     1      66.064  29.570 114.280  0.00  0.00    -0.303 N 
ATOM      2  H   UNL     1      66.652  28.892 114.787  0.00  0.00    +0.149 HD
ATOM      3  C   UNL     1      65.080  30.192 114.965  0.00  0.00    +0.218 C 
ATOM      4  O   UNL     1      64.311  31.034 114.442  0.00  0.00    -0.275 OA
ENDROOT
BRANCH   1   5
ATOM      5  C   UNL     1      66.356  29.808 112.816  0.00  0.00    +0.164 C 
BRANCH   5   6
ATOM      6  C   UNL     1      65.898  28.490 112.042  0.00  0.00    +0.234 C 
ATOM      7  N   UNL     1      66.081  28.535 110.693  0.00  0.00    -0.317 N 
ATOM      8  H   UNL     1      66.491  29.390 110.292  0.00  0.00    +0.148 HD
ATOM      9  C   UNL     1      65.729  27.436 109.763  0.00  0.00    +0.128 C 
ATOM     10  O   UNL     1      65.408  27.516 112.652  0.00  0.00    -0.274 OA
ENDBRANCH   5   6
BRANCH   5  12
ATOM     11  C   UNL     1      68.791  28.989 112.356  0.00  0.00    +0.013 C 
ATOM     12  C   UNL     1      67.892  30.237 112.564  0.00  0.00    -0.011 C 
ATOM     13  C   UNL     1      68.482  31.075 113.762  0.00  0.00    +0.013 C 
ATOM     14  C   UNL     1      68.100  31.127 111.277  0.00  0.00    +0.013 C 
ENDBRANCH   5  12
ENDBRANCH   1   5
BRANCH   3  15
ATOM     15  C   UNL     1      64.916  29.831 116.470  0.00  0.00    +0.093 C 
BRANCH  15  16
ATOM     16  C   UNL     1      66.244  29.242 117.100  0.00  0.00    +0.017 C 
BRANCH  16  17
ATOM     17  C   UNL     1      66.995  30.026 118.205  0.00  0.00    -0.016 C 
ATOM     18  C   UNL     1      65.991  30.826 119.015  0.00  0.00    +0.007 C 
ATOM     19  C   UNL     1      67.932  31.081 117.574  0.00  0.00    +0.007 C 
ENDBRANCH  16  17
ENDBRANCH  15  16
BRANCH  15  20
ATOM     20  C   UNL     1      63.764  28.759 116.512  0.00  0.00    +0.125 C 
BRANCH  20  21
ATOM     21  N   UNL     1      62.550  29.233 117.170  0.00  0.00    -0.298 N 
ATOM     22  O   UNL     1      62.326  30.495 117.137  0.00  0.00    -0.421 OA
ATOM     23  C   UNL     1      61.684  28.442 117.806  0.00  0.00    +0.131 C 
ATOM     24  O   UNL     1      60.707  28.826 118.354  0.00  0.00    -0.546 OA
ENDBRANCH  20  21
ENDBRANCH  15  20
ENDBRANCH   3  15
TORSDOF 8
ENDMDL
MODEL 4
REMARK VINA RESULT:      -6.1      2.983      5.887
REMARK  Name = LIGAND
REMARK  14 active torsions:
REMARK  status: ('A' for Active; 'I' for Inactive)
REMARK    1  A    between atoms: C_1  and  C_9
REMARK    2  A    between atoms: C_5  and  C_9
REMARK    3  A    between atoms: C_9  and  C_10
REMARK    4  A    between atoms: C_9  and  C_12
REMARK    5  A    between atoms: C_10  and  C_16
REMARK    6  A    between atoms: C_10  and  N_18
REMARK    7  A    between atoms: N_20  and  C_22
REMARK    8  A    between atoms: C_26  and  C_30
REMARK    9  A    between atoms: C_30  and  C_37
REMARK   10  A    between atoms: C_30  and  C_40
REMARK   11  A    between atoms: C_32  and  C_35
REMARK   12  A    between atoms: C_32  and  N_48
REMARK   13  A    between atoms: C_35  and  C_37
REMARK   14  A    between atoms: C_35  and  C_44
REMARK                            x       y       z     vdW  Elec       q    Type
REMARK                         _______ _______ _______ _____ _____    ______ ____
ROOT
ATOM      1  N   UNL     1      66.257  29.850 115.263  0.00  0.00    -0.303 N 
ATOM      2  H   UNL     1      66.085  28.834 115.239  0.00  0.00    +0.149 HD
ATOM      3  C   UNL     1      66.934  30.403 114.234  0.00  0.00    +0.218 C 
ATOM      4  O   UNL     1      67.193  31.629 114.167  0.00  0.00    -0.275 OA
ENDROOT
BRANCH   1   5
ATOM      5  C   UNL     1      65.734  30.630 116.449  0.00  0.00    +0.164 C 
BRANCH   5   6
ATOM      6  C   UNL     1      66.987  30.907 117.397  0.00  0.00    +0.234 C 
ATOM      7  N   UNL     1      67.315  32.222 117.530  0.00  0.00    -0.317 N 
ATOM      8  H   UNL     1      66.742  32.913 117.025  0.00  0.00    +0.148 HD
ATOM      9  C   UNL     1      68.440  32.726 118.353  0.00  0.00    +0.128 C 
ATOM     10  O   UNL     1      67.601  29.970 117.952  0.00  0.00    -0.274 OA
ENDBRANCH   5   6
BRANCH   5  12
ATOM     11  C   UNL     1      64.659  28.343 117.098  0.00  0.00    +0.013 C 
ATOM     12  C   UNL     1      64.496  29.885 117.169  0.00  0.00    -0.011 C 
ATOM     13  C   UNL     1      63.111  30.266 116.520  0.00  0.00    +0.013 C 
ATOM     14  C   UNL     1      64.357  30.226 118.704  0.00  0.00    +0.013 C 
ENDBRANCH   5  12
ENDBRANCH   1   5
BRANCH   3  15
ATOM     15  C   UNL     1      67.400  29.454 113.091  0.00  0.00    +0.093 C 
BRANCH  15  16
ATOM     16  C   UNL     1      68.766  29.919 112.439  0.00  0.00    +0.017 C 
BRANCH  16  17
ATOM     17  C   UNL     1      69.793  28.867 111.953  0.00  0.00    -0.016 C 
ATOM     18  C   UNL     1      71.196  29.395 112.190  0.00  0.00    +0.007 C 
ATOM     19  C   UNL     1      69.690  28.680 110.422  0.00  0.00    +0.007 C 
ENDBRANCH  16  17
ENDBRANCH  15  16
BRANCH  15  20
ATOM     20  C   UNL     1      66.241  29.493 112.027  0.00  0.00    +0.125 C 
BRANCH  20  21
ATOM     21  N   UNL     1      65.832  28.170 111.564  0.00  0.00    -0.298 N 
ATOM     22  O   UNL     1      65.144  27.456 112.378  0.00  0.00    -0.421 OA
ATOM     23  C   UNL     1      66.139  27.666 110.367  0.00  0.00    +0.131 C 
ATOM     24  O   UNL     1      65.822  26.588 109.995  0.00  0.00    -0.546 OA
ENDBRANCH  20  21
ENDBRANCH  15  20
ENDBRANCH   3  15
TORSDOF 8
ENDMDL
MODEL 5
REMARK VINA RESULT:      -6.0      1.763      2.429
REMARK  Name = LIGAND
REMARK  14 active torsions:
REMARK  status: ('A' for Active; 'I' for Inactive)
REMARK    1  A    between atoms: C_1  and  C_9
REMARK    2  A    between atoms: C_5  and  C_9
REMARK    3  A    between atoms: C_9  and  C_10
REMARK    4  A    between atoms: C_9  and  C_12
REMARK    5  A    between atoms: C_10  and  C_16
REMARK    6  A    between atoms: C_10  and  N_18
REMARK    7  A    between atoms: N_20  and  C_22
REMARK    8  A    between atoms: C_26  and  C_30
REMARK    9  A    between atoms: C_30  and  C_37
REMARK   10  A    between atoms: C_30  and  C_40
REMARK   11  A    between atoms: C_32  and  C_35
REMARK   12  A    between atoms: C_32  and  N_48
REMARK   13  A    between atoms: C_35  and  C_37
REMARK   14  A    between atoms: C_35  and  C_44
REMARK                            x       y       z     vdW  Elec       q    Type
REMARK                         _______ _______ _______ _____ _____    ______ ____
ROOT
ATOM      1  N   UNL     1      66.951  31.780 117.361  0.00  0.00    -0.303 N 
ATOM      2  H   UNL     1      66.770  31.806 116.347  0.00  0.00    +0.149 HD
ATOM      3  C   UNL     1      66.074  31.116 118.144  0.00  0.00    +0.218 C 
ATOM      4  O   UNL     1      66.204  31.023 119.389  0.00  0.00    -0.275 OA
ENDROOT
BRANCH   1   5
ATOM      5  C   UNL     1      68.182  32.487 117.881  0.00  0.00    +0.164 C 
BRANCH   5   6
ATOM      6  C   UNL     1      67.727  33.967 118.264  0.00  0.00    +0.234 C 
ATOM      7  N   UNL     1      67.168  34.670 117.240  0.00  0.00    -0.317 N 
ATOM      8  H   UNL     1      67.084  34.201 116.327  0.00  0.00    +0.148 HD
ATOM      9  C   UNL     1      66.673  36.062 117.351  0.00  0.00    +0.128 C 
ATOM     10  O   UNL     1      67.891  34.419 119.418  0.00  0.00    -0.274 OA
ENDBRANCH   5   6
BRANCH   5  12
ATOM     11  C   UNL     1      70.137  33.779 116.732  0.00  0.00    +0.013 C 
ATOM     12  C   UNL     1      69.413  32.410 116.839  0.00  0.00    -0.011 C 
ATOM     13  C   UNL     1      68.947  31.984 115.394  0.00  0.00    +0.013 C 
ATOM     14  C   UNL     1      70.529  31.372 117.251  0.00  0.00    +0.013 C 
ENDBRANCH   5  12
ENDBRANCH   1   5
BRANCH   3  15
ATOM     15  C   UNL     1      64.857  30.441 117.446  0.00  0.00    +0.093 C 
BRANCH  15  16
ATOM     16  C   UNL     1      63.849  29.793 118.480  0.00  0.00    +0.017 C 
BRANCH  16  17
ATOM     17  C   UNL     1      62.325  29.822 118.203  0.00  0.00    -0.016 C 
ATOM     18  C   UNL     1      61.894  28.473 117.656  0.00  0.00    +0.007 C 
ATOM     19  C   UNL     1      62.002  30.831 117.078  0.00  0.00    +0.007 C 
ENDBRANCH  16  17
ENDBRANCH  15  16
BRANCH  15  20
ATOM     20  C   UNL     1      65.480  29.334 116.517  0.00  0.00    +0.125 C 
BRANCH  20  21
ATOM     21  N   UNL     1      65.018  29.406 115.133  0.00  0.00    -0.298 N 
ATOM     22  O   UNL     1      64.528  30.526 114.742  0.00  0.00    -0.421 OA
ATOM     23  C   UNL     1      65.062  28.387 114.273  0.00  0.00    +0.131 C 
ATOM     24  O   UNL     1      64.673  28.440 113.156  0.00  0.00    -0.546 OA
ENDBRANCH  20  21
ENDBRANCH  15  20
ENDBRANCH   3  15
TORSDOF 8
ENDMDL
MODEL 6
REMARK VINA RESULT:      -5.9      1.284      6.921
REMARK  Name = LIGAND
REMARK  14 active torsions:
REMARK  status: ('A' for Active; 'I' for Inactive)
REMARK    1  A    between atoms: C_1  and  C_9
REMARK    2  A    between atoms: C_5  and  C_9
REMARK    3  A    between atoms: C_9  and  C_10
REMARK    4  A    between atoms: C_9  and  C_12
REMARK    5  A    between atoms: C_10  and  C_16
REMARK    6  A    between atoms: C_10  and  N_18
REMARK    7  A    between atoms: N_20  and  C_22
REMARK    8  A    between atoms: C_26  and  C_30
REMARK    9  A    between atoms: C_30  and  C_37
REMARK   10  A    between atoms: C_30  and  C_40
REMARK   11  A    between atoms: C_32  and  C_35
REMARK   12  A    between atoms: C_32  and  N_48
REMARK   13  A    between atoms: C_35  and  C_37
REMARK   14  A    between atoms: C_35  and  C_44
REMARK                            x       y       z     vdW  Elec       q    Type
REMARK                         _______ _______ _______ _____ _____    ______ ____
ROOT
ATOM      1  N   UNL     1      65.212  30.861 117.363  0.00  0.00    -0.303 N 
ATOM      2  H   UNL     1      64.857  31.755 116.995  0.00  0.00    +0.149 HD
ATOM      3  C   UNL     1      66.263  30.897 118.210  0.00  0.00    +0.218 C 
ATOM      4  O   UNL     1      66.769  29.865 118.715  0.00  0.00    -0.275 OA
ENDROOT
BRANCH   1   5
ATOM      5  C   UNL     1      64.526  29.588 116.920  0.00  0.00    +0.164 C 
BRANCH   5   6
ATOM      6  C   UNL     1      64.620  29.551 115.329  0.00  0.00    +0.234 C 
ATOM      7  N   UNL     1      64.980  28.344 114.812  0.00  0.00    -0.317 N 
ATOM      8  H   UNL     1      65.154  27.572 115.471  0.00  0.00    +0.148 HD
ATOM      9  C   UNL     1      65.138  28.065 113.365  0.00  0.00    +0.128 C 
ATOM     10  O   UNL     1      64.386  30.568 114.640  0.00  0.00    -0.274 OA
ENDBRANCH   5   6
BRANCH   5  12
ATOM     11  C   UNL     1      62.342  28.164 117.025  0.00  0.00    +0.013 C 
ATOM     12  C   UNL     1      63.027  29.470 117.509  0.00  0.00    -0.011 C 
ATOM     13  C   UNL     1      62.121  30.688 117.084  0.00  0.00    +0.013 C 
ATOM     14  C   UNL     1      62.966  29.421 119.085  0.00  0.00    +0.013 C 
ENDBRANCH   5  12
ENDBRANCH   1   5
BRANCH   3  15
ATOM     15  C   UNL     1      66.851  32.294 118.564  0.00  0.00    +0.093 C 
BRANCH  15  16
ATOM     16  C   UNL     1      68.007  32.732 117.574  0.00  0.00    +0.017 C 
BRANCH  16  17
ATOM     17  C   UNL     1      68.739  31.671 116.715  0.00  0.00    -0.016 C 
ATOM     18  C   UNL     1      70.180  31.563 117.181  0.00  0.00    +0.007 C 
ATOM     19  C   UNL     1      68.827  32.136 115.244  0.00  0.00    +0.007 C 
ENDBRANCH  16  17
ENDBRANCH  15  16
BRANCH  15  20
ATOM     20  C   UNL     1      67.409  32.146 120.028  0.00  0.00    +0.125 C 
BRANCH  20  21
ATOM     21  N   UNL     1      66.366  32.145 121.051  0.00  0.00    -0.298 N 
ATOM     22  O   UNL     1      65.436  33.021 120.934  0.00  0.00    -0.421 OA
ATOM     23  C   UNL     1      66.334  31.307 122.089  0.00  0.00    +0.131 C 
ATOM     24  O   UNL     1      65.498  31.315 122.928  0.00  0.00    -0.546 OA
ENDBRANCH  20  21
ENDBRANCH  15  20
ENDBRANCH   3  15
TORSDOF 8
ENDMDL
MODEL 7
REMARK VINA RESULT:      -5.9      1.944      6.250
REMARK  Name = LIGAND
REMARK  14 active torsions:
REMARK  status: ('A' for Active; 'I' for Inactive)
REMARK    1  A    between atoms: C_1  and  C_9
REMARK    2  A    between atoms: C_5  and  C_9
REMARK    3  A    between atoms: C_9  and  C_10
REMARK    4  A    between atoms: C_9  and  C_12
REMARK    5  A    between atoms: C_10  and  C_16
REMARK    6  A    between atoms: C_10  and  N_18
REMARK    7  A    between atoms: N_20  and  C_22
REMARK    8  A    between atoms: C_26  and  C_30
REMARK    9  A    between atoms: C_30  and  C_37
REMARK   10  A    between atoms: C_30  and  C_40
REMARK   11  A    between atoms: C_32  and  C_35
REMARK   12  A    between atoms: C_32  and  N_48
REMARK   13  A    between atoms: C_35  and  C_37
REMARK   14  A    between atoms: C_35  and  C_44
REMARK                            x       y       z     vdW  Elec       q    Type
REMARK                         _______ _______ _______ _____ _____    ______ ____
ROOT
ATOM      1  N   UNL     1      65.590  30.682 117.159  0.00  0.00    -0.303 N 
ATOM      2  H   UNL     1      65.340  31.618 116.808  0.00  0.00    +0.149 HD
ATOM      3  C   UNL     1      66.660  30.576 117.975  0.00  0.00    +0.218 C 
ATOM      4  O   UNL     1      67.047  29.484 118.457  0.00  0.00    -0.275 OA
ENDROOT
BRANCH   1   5
ATOM      5  C   UNL     1      64.735  29.511 116.729  0.00  0.00    +0.164 C 
BRANCH   5   6
ATOM      6  C   UNL     1      64.774  29.482 115.135  0.00  0.00    +0.234 C 
ATOM      7  N   UNL     1      65.033  28.258 114.598  0.00  0.00    -0.317 N 
ATOM      8  H   UNL     1      65.177  27.470 115.245  0.00  0.00    +0.148 HD
ATOM      9  C   UNL     1      65.123  27.983 113.144  0.00  0.00    +0.128 C 
ATOM     10  O   UNL     1      64.585  30.519 114.462  0.00  0.00    -0.274 OA
ENDBRANCH   5   6
BRANCH   5  12
ATOM     11  C   UNL     1      62.449  28.289 117.030  0.00  0.00    +0.013 C 
ATOM     12  C   UNL     1      63.252  29.574 117.366  0.00  0.00    -0.011 C 
ATOM     13  C   UNL     1      62.433  30.817 116.849  0.00  0.00    +0.013 C 
ATOM     14  C   UNL     1      63.243  29.680 118.941  0.00  0.00    +0.013 C 
ENDBRANCH   5  12
ENDBRANCH   1   5
BRANCH   3  15
ATOM     15  C   UNL     1      67.431  31.884 118.320  0.00  0.00    +0.093 C 
BRANCH  15  16
ATOM     16  C   UNL     1      66.524  32.940 119.074  0.00  0.00    +0.017 C 
BRANCH  16  17
ATOM     17  C   UNL     1      66.629  33.097 120.612  0.00  0.00    -0.016 C 
ATOM     18  C   UNL     1      68.093  33.122 121.010  0.00  0.00    +0.007 C 
ATOM     19  C   UNL     1      66.042  31.856 121.321  0.00  0.00    +0.007 C 
ENDBRANCH  16  17
ENDBRANCH  15  16
BRANCH  15  20
ATOM     20  C   UNL     1      67.905  32.458 116.933  0.00  0.00    +0.125 C 
BRANCH  20  21
ATOM     21  N   UNL     1      69.210  31.955 116.511  0.00  0.00    -0.298 N 
ATOM     22  O   UNL     1      69.430  31.897 115.248  0.00  0.00    -0.421 OA
ATOM     23  C   UNL     1      70.164  31.546 117.349  0.00  0.00    +0.131 C 
ATOM     24  O   UNL     1      71.216  31.123 117.008  0.00  0.00    -0.546 OA
ENDBRANCH  20  21
ENDBRANCH  15  20
ENDBRANCH   3  15
TORSDOF 8
ENDMDL
MODEL 8
REMARK VINA RESULT:      -5.7      5.327      8.061
REMARK  Name = LIGAND
REMARK  14 active torsions:
REMARK  status: ('A' for Active; 'I' for Inactive)
REMARK    1  A    between atoms: C_1  and  C_9
REMARK    2  A    between atoms: C_5  and  C_9
REMARK    3  A    between atoms: C_9  and  C_10
REMARK    4  A    between atoms: C_9  and  C_12
REMARK    5  A    between atoms: C_10  and  C_16
REMARK    6  A    between atoms: C_10  and  N_18
REMARK    7  A    between atoms: N_20  and  C_22
REMARK    8  A    between atoms: C_26  and  C_30
REMARK    9  A    between atoms: C_30  and  C_37
REMARK   10  A    between atoms: C_30  and  C_40
REMARK   11  A    between atoms: C_32  and  C_35
REMARK   12  A    between atoms: C_32  and  N_48
REMARK   13  A    between atoms: C_35  and  C_37
REMARK   14  A    between atoms: C_35  and  C_44
REMARK                            x       y       z     vdW  Elec       q    Type
REMARK                         _______ _______ _______ _____ _____    ______ ____
ROOT
ATOM      1  N   UNL     1      69.270  29.552 111.575  0.00  0.00    -0.303 N 
ATOM      2  H   UNL     1      68.818  28.638 111.433  0.00  0.00    +0.149 HD
ATOM      3  C   UNL     1      68.582  30.504 112.241  0.00  0.00    +0.218 C 
ATOM      4  O   UNL     1      69.043  31.649 112.467  0.00  0.00    -0.275 OA
ENDROOT
BRANCH   1   5
ATOM      5  C   UNL     1      70.665  29.747 111.024  0.00  0.00    +0.164 C 
BRANCH   5   6
ATOM      6  C   UNL     1      70.494  30.363 109.562  0.00  0.00    +0.234 C 
ATOM      7  N   UNL     1      71.204  31.504 109.344  0.00  0.00    -0.317 N 
ATOM      8  H   UNL     1      71.781  31.866 110.116  0.00  0.00    +0.148 HD
ATOM      9  C   UNL     1      71.203  32.260 108.069  0.00  0.00    +0.128 C 
ATOM     10  O   UNL     1      69.753  29.823 108.712  0.00  0.00    -0.274 OA
ENDBRANCH   5   6
BRANCH   5  12
ATOM     11  C   UNL     1      72.384  28.332 112.383  0.00  0.00    +0.013 C 
ATOM     12  C   UNL     1      71.537  28.390 111.084  0.00  0.00    -0.011 C 
ATOM     13  C   UNL     1      72.512  28.251 109.853  0.00  0.00    +0.013 C 
ATOM     14  C   UNL     1      70.665  27.074 111.088  0.00  0.00    +0.013 C 
ENDBRANCH   5  12
ENDBRANCH   1   5
BRANCH   3  15
ATOM     15  C   UNL     1      67.154  30.137 112.742  0.00  0.00    +0.093 C 
BRANCH  15  16
ATOM     16  C   UNL     1      66.823  30.782 114.150  0.00  0.00    +0.017 C 
BRANCH  16  17
ATOM     17  C   UNL     1      66.047  29.968 115.215  0.00  0.00    -0.016 C 
ATOM     18  C   UNL     1      64.578  30.345 115.155  0.00  0.00    +0.007 C 
ATOM     19  C   UNL     1      66.505  30.367 116.636  0.00  0.00    +0.007 C 
ENDBRANCH  16  17
ENDBRANCH  15  16
BRANCH  15  20
ATOM     20  C   UNL     1      67.146  28.566 112.842  0.00  0.00    +0.125 C 
BRANCH  20  21
ATOM     21  N   UNL     1      66.115  27.937 112.021  0.00  0.00    -0.298 N 
ATOM     22  O   UNL     1      64.952  27.806 112.547  0.00  0.00    -0.421 OA
ATOM     23  C   UNL     1      66.315  27.485 110.781  0.00  0.00    +0.131 C 
ATOM     24  O   UNL     1      65.484  26.960 110.120  0.00  0.00    -0.546 OA
ENDBRANCH  20  21
ENDBRANCH  15  20
ENDBRANCH   3  15
TORSDOF 8
ENDMDL
MODEL 9
REMARK VINA RESULT:      -5.7      2.446      6.270
REMARK  Name = LIGAND
REMARK  14 active torsions:
REMARK  status: ('A' for Active; 'I' for Inactive)
REMARK    1  A    between atoms: C_1  and  C_9
REMARK    2  A    between atoms: C_5  and  C_9
REMARK    3  A    between atoms: C_9  and  C_10
REMARK    4  A    between atoms: C_9  and  C_12
REMARK    5  A    between atoms: C_10  and  C_16
REMARK    6  A    between atoms: C_10  and  N_18
REMARK    7  A    between atoms: N_20  and  C_22
REMARK    8  A    between atoms: C_26  and  C_30
REMARK    9  A    between atoms: C_30  and  C_37
REMARK   10  A    between atoms: C_30  and  C_40
REMARK   11  A    between atoms: C_32  and  C_35
REMARK   12  A    between atoms: C_32  and  N_48
REMARK   13  A    between atoms: C_35  and  C_37
REMARK   14  A    between atoms: C_35  and  C_44
REMARK                            x       y       z     vdW  Elec       q    Type
REMARK                         _______ _______ _______ _____ _____    ______ ____
ROOT
ATOM      1  N   UNL     1      66.435  30.092 114.428  0.00  0.00    -0.303 N 
ATOM      2  H   UNL     1      67.183  29.659 114.987  0.00  0.00    +0.149 HD
ATOM      3  C   UNL     1      65.266  30.373 115.042  0.00  0.00    +0.218 C 
ATOM      4  O   UNL     1      64.293  30.902 114.451  0.00  0.00    -0.275 OA
ENDROOT
BRANCH   1   5
ATOM      5  C   UNL     1      66.713  30.376 112.968  0.00  0.00    +0.164 C 
BRANCH   5   6
ATOM      6  C   UNL     1      66.892  28.959 112.257  0.00  0.00    +0.234 C 
ATOM      7  N   UNL     1      66.035  28.733 111.224  0.00  0.00    -0.317 N 
ATOM      8  H   UNL     1      65.360  29.475 110.989  0.00  0.00    +0.148 HD
ATOM      9  C   UNL     1      66.007  27.492 110.415  0.00  0.00    +0.128 C 
ATOM     10  O   UNL     1      67.754  28.141 112.647  0.00  0.00    -0.274 OA
ENDBRANCH   5   6
BRANCH   5  12
ATOM     11  C   UNL     1      69.131  31.016 113.712  0.00  0.00    +0.013 C 
ATOM     12  C   UNL     1      67.954  31.390 112.772  0.00  0.00    -0.011 C 
ATOM     13  C   UNL     1      67.552  32.888 113.055  0.00  0.00    +0.013 C 
ATOM     14  C   UNL     1      68.557  31.379 111.313  0.00  0.00    +0.013 C 
ENDBRANCH   5  12
ENDBRANCH   1   5
BRANCH   3  15
ATOM     15  C   UNL     1      65.146  30.017 116.553  0.00  0.00    +0.093 C 
BRANCH  15  16
ATOM     16  C   UNL     1      63.658  30.119 117.083  0.00  0.00    +0.017 C 
BRANCH  16  17
ATOM     17  C   UNL     1      63.140  29.115 118.143  0.00  0.00    -0.016 C 
ATOM     18  C   UNL     1      63.759  27.754 117.883  0.00  0.00    +0.007 C 
ATOM     19  C   UNL     1      61.618  28.900 117.983  0.00  0.00    +0.007 C 
ENDBRANCH  16  17
ENDBRANCH  15  16
BRANCH  15  20
ATOM     20  C   UNL     1      66.067  31.057 117.293  0.00  0.00    +0.125 C 
BRANCH  20  21
ATOM     21  N   UNL     1      66.326  30.716 118.689  0.00  0.00    -0.298 N 
ATOM     22  O   UNL     1      66.960  29.624 118.913  0.00  0.00    -0.421 OA
ATOM     23  C   UNL     1      65.933  31.456 119.728  0.00  0.00    +0.131 C 
ATOM     24  O   UNL     1      66.128  31.173 120.861  0.00  0.00    -0.546 OA
ENDBRANCH  20  21
ENDBRANCH  15  20
ENDBRANCH   3  15
TORSDOF 8
ENDMDL
