MODEL 1
REMARK VINA RESULT:      -6.9      0.000      0.000
REMARK  Name = LIGAND
REMARK  8 active torsions:
REMARK  status: ('A' for Active; 'I' for Inactive)
REMARK    1  A    between atoms: N_1  and  C_5
REMARK    2  A    between atoms: C_3  and  C_15
REMARK    3  A    between atoms: C_5  and  C_6
REMARK    4  A    between atoms: C_5  and  C_12
REMARK    5  A    between atoms: C_15  and  C_16
REMARK    6  A    between atoms: C_15  and  C_20
REMARK    7  A    between atoms: C_16  and  C_17
REMARK    8  A    between atoms: C_20  and  N_21
REMARK                            x       y       z     vdW  Elec       q    Type
REMARK                         _______ _______ _______ _____ _____    ______ ____
ROOT
ATOM      1  N   UNL     1      65.938  31.113 117.925  0.00  0.00    -0.303 N 
ATOM      2  H   UNL     1      65.221  31.817 117.695  0.00  0.00    +0.149 HD
ATOM      3  C   UNL     1      65.674  29.821 117.636  0.00  0.00    +0.218 C 
ATOM      4  O   UNL     1      66.481  28.889 117.874  0.00  0.00    -0.275 OA
ENDROOT
BRANCH   1   5
ATOM      5  C   UNL     1      67.222  31.592 118.565  0.00  0.00    +0.164 C 
BRANCH   5   6
ATOM      6  C   UNL     1      66.806  32.350 119.906  0.00  0.00    +0.234 C 
ATOM      7  N   UNL     1      67.776  32.380 120.861  0.00  0.00    -0.317 N 
ATOM      8  H   UNL     1      68.676  31.927 120.647  0.00  0.00    +0.148 HD
ATOM      9  C   UNL     1      67.623  33.021 122.189  0.00  0.00    +0.128 C 
ATOM     10  O   UNL     1      65.671  32.856 120.040  0.00  0.00    -0.274 OA
ENDBRANCH   5   6
BRANCH   5  12
ATOM     11  C   UNL     1      69.632  32.197 117.766  0.00  0.00    +0.013 C 
ATOM     12  C   UNL     1      68.119  32.468 117.547  0.00  0.00    -0.011 C 
ATOM     13  C   UNL     1      67.867  34.016 117.709  0.00  0.00    +0.013 C 
ATOM     14  C   UNL     1      67.848  32.147 116.026  0.00  0.00    +0.013 C 
ENDBRANCH   5  12
ENDBRANCH   1   5
BRANCH   3  15
ATOM     15  C   UNL     1      64.301  29.500 116.976  0.00  0.00    +0.093 C 
BRANCH  15  16
ATOM     16  C   UNL     1      63.268  28.876 118.001  0.00  0.00    +0.017 C 
BRANCH  16  17
ATOM     17  C   UNL     1      61.983  29.653 118.380  0.00  0.00    -0.016 C 
ATOM     18  C   UNL     1      60.794  28.713 118.306  0.00  0.00    +0.007 C 
ATOM     19  C   UNL     1      61.690  30.753 117.333  0.00  0.00    +0.007 C 
ENDBRANCH  16  17
ENDBRANCH  15  16
BRANCH  15  20
ATOM     20  C   UNL     1      64.628  28.473 115.830  0.00  0.00    +0.125 C 
BRANCH  20  21
ATOM     21  N   UNL     1      64.908  29.105 114.543  0.00  0.00    -0.298 N 
ATOM     22  O   UNL     1      64.653  30.358 114.444  0.00  0.00    -0.421 OA
ATOM     23  C   UNL     1      65.391  28.460 113.480  0.00  0.00    +0.131 C 
ATOM     24  O   UNL     1      65.603  28.968 112.431  0.00  0.00    -0.546 OA
ENDBRANCH  20  21
ENDBRANCH  15  20
ENDBRANCH   3  15
TORSDOF 8
ENDMDL
MODEL 2
REMARK VINA RESULT:      -6.7      2.878      6.371
REMARK  Name = LIGAND
REMARK  8 active torsions:
REMARK  status: ('A' for Active; 'I' for Inactive)
REMARK    1  A    between atoms: N_1  and  C_5
REMARK    2  A    between atoms: C_3  and  C_15
REMARK    3  A    between atoms: C_5  and  C_6
REMARK    4  A    between atoms: C_5  and  C_12
REMARK    5  A    between atoms: C_15  and  C_16
REMARK    6  A    between atoms: C_15  and  C_20
REMARK    7  A    between atoms: C_16  and  C_17
REMARK    8  A    between atoms: C_20  and  N_21
REMARK                            x       y       z     vdW  Elec       q    Type
REMARK                         _______ _______ _______ _____ _____    ______ ____
ROOT
ATOM      1  N   UNL     1      66.041  29.554 114.272  0.00  0.00    -0.303 N 
ATOM      2  H   UNL     1      66.607  28.857 114.776  0.00  0.00    +0.149 HD
ATOM      3  C   UNL     1      65.076  30.204 114.958  0.00  0.00    +0.218 C 
ATOM      4  O   UNL     1      64.334  31.071 114.437  0.00  0.00    -0.275 OA
ENDROOT
BRANCH   1   5
ATOM      5  C   UNL     1      66.341  29.787 112.808  0.00  0.00    +0.164 C 
BRANCH   5   6
ATOM      6  C   UNL     1      65.892  28.465 112.036  0.00  0.00    +0.234 C 
ATOM      7  N   UNL     1      66.056  28.516 110.685  0.00  0.00    -0.317 N 
ATOM      8  H   UNL     1      66.448  29.379 110.282  0.00  0.00    +0.148 HD
ATOM      9  C   UNL     1      65.708  27.415 109.757  0.00  0.00    +0.128 C 
ATOM     10  O   UNL     1      65.424  27.482 112.650  0.00  0.00    -0.274 OA
ENDBRANCH   5   6
BRANCH   5  12
ATOM     11  C   UNL     1      68.777  28.976 112.342  0.00  0.00    +0.013 C 
ATOM     12  C   UNL     1      67.877  30.221 112.564  0.00  0.00    -0.011 C 
ATOM     13  C   UNL     1      68.464  31.046 113.772  0.00  0.00    +0.013 C 
ATOM     14  C   UNL     1      68.085  31.127 111.288  0.00  0.00    +0.013 C 
ENDBRANCH   5  12
ENDBRANCH   1   5
BRANCH   3  15
ATOM     15  C   UNL     1      64.900  29.843 116.462  0.00  0.00    +0.093 C 
BRANCH  15  16
ATOM     16  C   UNL     1      66.223  29.255 117.102  0.00  0.00    +0.017 C 
BRANCH  16  17
ATOM     17  C   UNL     1      66.936  30.014 118.249  0.00  0.00    -0.016 C 
ATOM     18  C   UNL     1      65.910  30.817 119.026  0.00  0.00    +0.007 C 
ATOM     19  C   UNL     1      67.914  31.064 117.674  0.00  0.00    +0.007 C 
ENDBRANCH  16  17
ENDBRANCH  15  16
BRANCH  15  20
ATOM     20  C   UNL     1      63.749  28.770 116.495  0.00  0.00    +0.125 C 
BRANCH  20  21
ATOM     21  N   UNL     1      62.512  29.262 117.094  0.00  0.00    -0.298 N 
ATOM     22  O   UNL     1      61.717  28.386 117.590  0.00  0.00    -0.421 OA
ATOM     23  C   UNL     1      62.160  30.549 117.141  0.00  0.00    +0.131 C 
ATOM     24  O   UNL     1      61.150  30.948 117.612  0.00  0.00    -0.546 OA
ENDBRANCH  20  21
ENDBRANCH  15  20
ENDBRANCH   3  15
TORSDOF 8
ENDMDL
MODEL 3
REMARK VINA RESULT:      -6.5      2.274      6.093
REMARK  Name = LIGAND
REMARK  8 active torsions:
REMARK  status: ('A' for Active; 'I' for Inactive)
REMARK    1  A    between atoms: N_1  and  C_5
REMARK    2  A    between atoms: C_3  and  C_15
REMARK    3  A    between atoms: C_5  and  C_6
REMARK    4  A    between atoms: C_5  and  C_12
REMARK    5  A    between atoms: C_15  and  C_16
REMARK    6  A    between atoms: C_15  and  C_20
REMARK    7  A    between atoms: C_16  and  C_17
REMARK    8  A    between atoms: C_20  and  N_21
REMARK                            x       y       z     vdW  Elec       q    Type
REMARK                         _______ _______ _______ _____ _____    ______ ____
ROOT
ATOM      1  N   UNL     1      66.023  29.306 114.219  0.00  0.00    -0.303 N 
ATOM      2  H   UNL     1      66.597  28.562 114.642  0.00  0.00    +0.149 HD
ATOM      3  C   UNL     1      65.073  29.886 114.984  0.00  0.00    +0.218 C 
ATOM      4  O   UNL     1      64.323  30.800 114.565  0.00  0.00    -0.275 OA
ENDROOT
BRANCH   1   5
ATOM      5  C   UNL     1      66.296  29.681 112.780  0.00  0.00    +0.164 C 
BRANCH   5   6
ATOM      6  C   UNL     1      65.848  28.433 111.893  0.00  0.00    +0.234 C 
ATOM      7  N   UNL     1      66.026  28.599 110.553  0.00  0.00    -0.317 N 
ATOM      8  H   UNL     1      66.427  29.490 110.229  0.00  0.00    +0.148 HD
ATOM      9  C   UNL     1      65.682  27.583 109.530  0.00  0.00    +0.128 C 
ATOM     10  O   UNL     1      65.368  27.403 112.416  0.00  0.00    -0.274 OA
ENDBRANCH   5   6
BRANCH   5  12
ATOM     11  C   UNL     1      68.336  30.971 113.769  0.00  0.00    +0.013 C 
ATOM     12  C   UNL     1      67.823  30.154 112.553  0.00  0.00    -0.011 C 
ATOM     13  C   UNL     1      67.988  31.039 111.259  0.00  0.00    +0.013 C 
ATOM     14  C   UNL     1      68.840  28.959 112.386  0.00  0.00    +0.013 C 
ENDBRANCH   5  12
ENDBRANCH   1   5
BRANCH   3  15
ATOM     15  C   UNL     1      64.925  29.380 116.449  0.00  0.00    +0.093 C 
BRANCH  15  16
ATOM     16  C   UNL     1      63.434  28.985 116.805  0.00  0.00    +0.017 C 
BRANCH  16  17
ATOM     17  C   UNL     1      62.658  29.774 117.889  0.00  0.00    -0.016 C 
ATOM     18  C   UNL     1      61.718  28.829 118.614  0.00  0.00    +0.007 C 
ATOM     19  C   UNL     1      61.738  30.828 117.232  0.00  0.00    +0.007 C 
ENDBRANCH  16  17
ENDBRANCH  15  16
BRANCH  15  20
ATOM     20  C   UNL     1      65.406  30.580 117.347  0.00  0.00    +0.125 C 
BRANCH  20  21
ATOM     21  N   UNL     1      66.811  30.490 117.736  0.00  0.00    -0.298 N 
ATOM     22  O   UNL     1      67.170  29.440 118.378  0.00  0.00    -0.421 OA
ATOM     23  C   UNL     1      67.722  31.431 117.478  0.00  0.00    +0.131 C 
ATOM     24  O   UNL     1      68.858  31.367 117.807  0.00  0.00    -0.546 OA
ENDBRANCH  20  21
ENDBRANCH  15  20
ENDBRANCH   3  15
TORSDOF 8
ENDMDL
MODEL 4
REMARK VINA RESULT:      -6.4      2.215      3.819
REMARK  Name = LIGAND
REMARK  8 active torsions:
REMARK  status: ('A' for Active; 'I' for Inactive)
REMARK    1  A    between atoms: N_1  and  C_5
REMARK    2  A    between atoms: C_3  and  C_15
REMARK    3  A    between atoms: C_5  and  C_6
REMARK    4  A    between atoms: C_5  and  C_12
REMARK    5  A    between atoms: C_15  and  C_16
REMARK    6  A    between atoms: C_15  and  C_20
REMARK    7  A    between atoms: C_16  and  C_17
REMARK    8  A    between atoms: C_20  and  N_21
REMARK                            x       y       z     vdW  Elec       q    Type
REMARK                         _______ _______ _______ _____ _____    ______ ____
ROOT
ATOM      1  N   UNL     1      65.819  31.109 117.968  0.00  0.00    -0.303 N 
ATOM      2  H   UNL     1      65.292  31.943 117.673  0.00  0.00    +0.149 HD
ATOM      3  C   UNL     1      65.465  29.917 117.443  0.00  0.00    +0.218 C 
ATOM      4  O   UNL     1      66.044  28.842 117.735  0.00  0.00    -0.275 OA
ENDROOT
BRANCH   1   5
ATOM      5  C   UNL     1      66.942  31.295 118.964  0.00  0.00    +0.164 C 
BRANCH   5   6
ATOM      6  C   UNL     1      66.269  31.808 120.316  0.00  0.00    +0.234 C 
ATOM      7  N   UNL     1      66.578  31.067 121.417  0.00  0.00    -0.317 N 
ATOM      8  H   UNL     1      67.205  30.260 121.292  0.00  0.00    +0.148 HD
ATOM      9  C   UNL     1      66.071  31.344 122.782  0.00  0.00    +0.128 C 
ATOM     10  O   UNL     1      65.518  32.807 120.330  0.00  0.00    -0.274 OA
ENDBRANCH   5   6
BRANCH   5  12
ATOM     11  C   UNL     1      67.518  33.416 117.558  0.00  0.00    +0.013 C 
ATOM     12  C   UNL     1      68.112  32.249 118.390  0.00  0.00    -0.011 C 
ATOM     13  C   UNL     1      69.131  31.463 117.479  0.00  0.00    +0.013 C 
ATOM     14  C   UNL     1      68.983  32.931 119.515  0.00  0.00    +0.013 C 
ENDBRANCH   5  12
ENDBRANCH   1   5
BRANCH   3  15
ATOM     15  C   UNL     1      64.285  29.903 116.429  0.00  0.00    +0.093 C 
BRANCH  15  16
ATOM     16  C   UNL     1      64.705  30.448 115.003  0.00  0.00    +0.017 C 
BRANCH  16  17
ATOM     17  C   UNL     1      66.169  30.307 114.517  0.00  0.00    -0.016 C 
ATOM     18  C   UNL     1      66.742  31.688 114.258  0.00  0.00    +0.007 C 
ATOM     19  C   UNL     1      66.216  29.591 113.148  0.00  0.00    +0.007 C 
ENDBRANCH  16  17
ENDBRANCH  15  16
BRANCH  15  20
ATOM     20  C   UNL     1      63.183  30.827 117.069  0.00  0.00    +0.125 C 
BRANCH  20  21
ATOM     21  N   UNL     1      61.931  30.131 117.351  0.00  0.00    -0.298 N 
ATOM     22  O   UNL     1      60.847  30.801 117.204  0.00  0.00    -0.421 OA
ATOM     23  C   UNL     1      61.853  28.863 117.759  0.00  0.00    +0.131 C 
ATOM     24  O   UNL     1      60.839  28.301 118.003  0.00  0.00    -0.546 OA
ENDBRANCH  20  21
ENDBRANCH  15  20
ENDBRANCH   3  15
TORSDOF 8
ENDMDL
MODEL 5
REMARK VINA RESULT:      -5.8      1.662      6.493
REMARK  Name = LIGAND
REMARK  8 active torsions:
REMARK  status: ('A' for Active; 'I' for Inactive)
REMARK    1  A    between atoms: N_1  and  C_5
REMARK    2  A    between atoms: C_3  and  C_15
REMARK    3  A    between atoms: C_5  and  C_6
REMARK    4  A    between atoms: C_5  and  C_12
REMARK    5  A    between atoms: C_15  and  C_16
REMARK    6  A    between atoms: C_15  and  C_20
REMARK    7  A    between atoms: C_16  and  C_17
REMARK    8  A    between atoms: C_20  and  N_21
REMARK                            x       y       z     vdW  Elec       q    Type
REMARK                         _______ _______ _______ _____ _____    ______ ____
ROOT
ATOM      1  N   UNL     1      64.891  30.119 118.150  0.00  0.00    -0.303 N 
ATOM      2  H   UNL     1      64.347  30.903 118.538  0.00  0.00    +0.149 HD
ATOM      3  C   UNL     1      66.223  30.100 118.369  0.00  0.00    +0.218 C 
ATOM      4  O   UNL     1      66.973  29.189 117.941  0.00  0.00    -0.275 OA
ENDROOT
BRANCH   1   5
ATOM      5  C   UNL     1      64.147  29.057 117.370  0.00  0.00    +0.164 C 
BRANCH   5   6
ATOM      6  C   UNL     1      64.444  29.335 115.828  0.00  0.00    +0.234 C 
ATOM      7  N   UNL     1      64.820  28.236 115.118  0.00  0.00    -0.317 N 
ATOM      8  H   UNL     1      64.878  27.338 115.619  0.00  0.00    +0.148 HD
ATOM      9  C   UNL     1      65.152  28.245 113.674  0.00  0.00    +0.128 C 
ATOM     10  O   UNL     1      64.339  30.483 115.343  0.00  0.00    -0.274 OA
ENDBRANCH   5   6
BRANCH   5  12
ATOM     11  C   UNL     1      61.843  30.278 117.255  0.00  0.00    +0.013 C 
ATOM     12  C   UNL     1      62.579  29.006 117.755  0.00  0.00    -0.011 C 
ATOM     13  C   UNL     1      62.350  28.883 119.310  0.00  0.00    +0.013 C 
ATOM     14  C   UNL     1      61.807  27.790 117.112  0.00  0.00    +0.013 C 
ENDBRANCH   5  12
ENDBRANCH   1   5
BRANCH   3  15
ATOM     15  C   UNL     1      66.830  31.272 119.194  0.00  0.00    +0.093 C 
BRANCH  15  16
ATOM     16  C   UNL     1      65.852  31.783 120.330  0.00  0.00    +0.017 C 
BRANCH  16  17
ATOM     17  C   UNL     1      66.413  32.182 121.717  0.00  0.00    -0.016 C 
ATOM     18  C   UNL     1      66.185  31.042 122.692  0.00  0.00    +0.007 C 
ATOM     19  C   UNL     1      65.615  33.372 122.299  0.00  0.00    +0.007 C 
ENDBRANCH  16  17
ENDBRANCH  15  16
BRANCH  15  20
ATOM     20  C   UNL     1      67.100  32.415 118.146  0.00  0.00    +0.125 C 
BRANCH  20  21
ATOM     21  N   UNL     1      67.592  33.652 118.747  0.00  0.00    -0.298 N 
ATOM     22  O   UNL     1      68.714  33.592 119.366  0.00  0.00    -0.421 OA
ATOM     23  C   UNL     1      66.944  34.817 118.701  0.00  0.00    +0.131 C 
ATOM     24  O   UNL     1      67.334  35.818 119.201  0.00  0.00    -0.546 OA
ENDBRANCH  20  21
ENDBRANCH  15  20
ENDBRANCH   3  15
TORSDOF 8
ENDMDL
MODEL 6
REMARK VINA RESULT:      -5.7      1.910      5.881
REMARK  Name = LIGAND
REMARK  8 active torsions:
REMARK  status: ('A' for Active; 'I' for Inactive)
REMARK    1  A    between atoms: N_1  and  C_5
REMARK    2  A    between atoms: C_3  and  C_15
REMARK    3  A    between atoms: C_5  and  C_6
REMARK    4  A    between atoms: C_5  and  C_12
REMARK    5  A    between atoms: C_15  and  C_16
REMARK    6  A    between atoms: C_15  and  C_20
REMARK    7  A    between atoms: C_16  and  C_17
REMARK    8  A    between atoms: C_20  and  N_21
REMARK                            x       y       z     vdW  Elec       q    Type
REMARK                         _______ _______ _______ _____ _____    ______ ____
ROOT
ATOM      1  N   UNL     1      65.618  30.737 117.133  0.00  0.00    -0.303 N 
ATOM      2  H   UNL     1      65.291  31.680 116.875  0.00  0.00    +0.149 HD
ATOM      3  C   UNL     1      66.777  30.633 117.818  0.00  0.00    +0.218 C 
ATOM      4  O   UNL     1      67.260  29.533 118.181  0.00  0.00    -0.275 OA
ENDROOT
BRANCH   1   5
ATOM      5  C   UNL     1      64.770  29.555 116.721  0.00  0.00    +0.164 C 
BRANCH   5   6
ATOM      6  C   UNL     1      64.793  29.513 115.127  0.00  0.00    +0.234 C 
ATOM      7  N   UNL     1      65.040  28.283 114.597  0.00  0.00    -0.317 N 
ATOM      8  H   UNL     1      65.184  27.499 115.250  0.00  0.00    +0.148 HD
ATOM      9  C   UNL     1      65.115  27.995 113.145  0.00  0.00    +0.128 C 
ATOM     10  O   UNL     1      64.605  30.545 114.447  0.00  0.00    -0.274 OA
ENDBRANCH   5   6
BRANCH   5  12
ATOM     11  C   UNL     1      63.371  29.775 118.913  0.00  0.00    +0.013 C 
ATOM     12  C   UNL     1      63.293  29.610 117.371  0.00  0.00    -0.011 C 
ATOM     13  C   UNL     1      62.452  28.313 117.056  0.00  0.00    +0.013 C 
ATOM     14  C   UNL     1      62.419  30.820 116.859  0.00  0.00    +0.013 C 
ENDBRANCH   5  12
ENDBRANCH   1   5
BRANCH   3  15
ATOM     15  C   UNL     1      67.526  31.953 118.164  0.00  0.00    +0.093 C 
BRANCH  15  16
ATOM     16  C   UNL     1      66.736  32.841 119.210  0.00  0.00    +0.017 C 
BRANCH  16  17
ATOM     17  C   UNL     1      66.945  32.622 120.729  0.00  0.00    -0.016 C 
ATOM     18  C   UNL     1      66.120  31.429 121.177  0.00  0.00    +0.007 C 
ATOM     19  C   UNL     1      66.382  33.820 121.528  0.00  0.00    +0.007 C 
ENDBRANCH  16  17
ENDBRANCH  15  16
BRANCH  15  20
ATOM     20  C   UNL     1      67.669  32.714 116.794  0.00  0.00    +0.125 C 
BRANCH  20  21
ATOM     21  N   UNL     1      68.555  32.045 115.846  0.00  0.00    -0.298 N 
ATOM     22  O   UNL     1      68.002  31.312 114.950  0.00  0.00    -0.421 OA
ATOM     23  C   UNL     1      69.886  32.140 115.868  0.00  0.00    +0.131 C 
ATOM     24  O   UNL     1      70.608  31.585 115.110  0.00  0.00    -0.546 OA
ENDBRANCH  20  21
ENDBRANCH  15  20
ENDBRANCH   3  15
TORSDOF 8
ENDMDL
MODEL 7
REMARK VINA RESULT:      -5.7      1.282      6.838
REMARK  Name = LIGAND
REMARK  8 active torsions:
REMARK  status: ('A' for Active; 'I' for Inactive)
REMARK    1  A    between atoms: N_1  and  C_5
REMARK    2  A    between atoms: C_3  and  C_15
REMARK    3  A    between atoms: C_5  and  C_6
REMARK    4  A    between atoms: C_5  and  C_12
REMARK    5  A    between atoms: C_15  and  C_16
REMARK    6  A    between atoms: C_15  and  C_20
REMARK    7  A    between atoms: C_16  and  C_17
REMARK    8  A    between atoms: C_20  and  N_21
REMARK                            x       y       z     vdW  Elec       q    Type
REMARK                         _______ _______ _______ _____ _____    ______ ____
ROOT
ATOM      1  N   UNL     1      65.451  30.879 117.144  0.00  0.00    -0.303 N 
ATOM      2  H   UNL     1      65.094  31.772 116.777  0.00  0.00    +0.149 HD
ATOM      3  C   UNL     1      66.549  30.909 117.929  0.00  0.00    +0.218 C 
ATOM      4  O   UNL     1      67.062  29.877 118.428  0.00  0.00    -0.275 OA
ENDROOT
BRANCH   1   5
ATOM      5  C   UNL     1      64.713  29.612 116.771  0.00  0.00    +0.164 C 
BRANCH   5   6
ATOM      6  C   UNL     1      64.742  29.522 115.179  0.00  0.00    +0.234 C 
ATOM      7  N   UNL     1      65.055  28.291 114.688  0.00  0.00    -0.317 N 
ATOM      8  H   UNL     1      65.239  27.537 115.366  0.00  0.00    +0.148 HD
ATOM      9  C   UNL     1      65.148  27.962 113.246  0.00  0.00    +0.128 C 
ATOM     10  O   UNL     1      64.502  30.521 114.467  0.00  0.00    -0.274 OA
ENDBRANCH   5   6
BRANCH   5  12
ATOM     11  C   UNL     1      63.305  29.673 118.967  0.00  0.00    +0.013 C 
ATOM     12  C   UNL     1      63.236  29.556 117.421  0.00  0.00    -0.011 C 
ATOM     13  C   UNL     1      62.475  28.223 117.061  0.00  0.00    +0.013 C 
ATOM     14  C   UNL     1      62.290  30.729 116.950  0.00  0.00    +0.013 C 
ENDBRANCH   5  12
ENDBRANCH   1   5
BRANCH   3  15
ATOM     15  C   UNL     1      67.187  32.300 118.216  0.00  0.00    +0.093 C 
BRANCH  15  16
ATOM     16  C   UNL     1      68.405  32.616 117.255  0.00  0.00    +0.017 C 
BRANCH  16  17
ATOM     17  C   UNL     1      68.155  33.265 115.871  0.00  0.00    -0.016 C 
ATOM     18  C   UNL     1      68.006  32.170 114.829  0.00  0.00    +0.007 C 
ATOM     19  C   UNL     1      69.392  34.076 115.424  0.00  0.00    +0.007 C 
ENDBRANCH  16  17
ENDBRANCH  15  16
BRANCH  15  20
ATOM     20  C   UNL     1      67.671  32.228 119.712  0.00  0.00    +0.125 C 
BRANCH  20  21
ATOM     21  N   UNL     1      66.577  32.243 120.679  0.00  0.00    -0.298 N 
ATOM     22  O   UNL     1      65.617  33.065 120.458  0.00  0.00    -0.421 OA
ATOM     23  C   UNL     1      66.527  31.473 121.768  0.00  0.00    +0.131 C 
ATOM     24  O   UNL     1      65.649  31.495 122.562  0.00  0.00    -0.546 OA
ENDBRANCH  20  21
ENDBRANCH  15  20
ENDBRANCH   3  15
TORSDOF 8
ENDMDL
MODEL 8
REMARK VINA RESULT:      -5.7      2.436      4.371
REMARK  Name = LIGAND
REMARK  8 active torsions:
REMARK  status: ('A' for Active; 'I' for Inactive)
REMARK    1  A    between atoms: N_1  and  C_5
REMARK    2  A    between atoms: C_3  and  C_15
REMARK    3  A    between atoms: C_5  and  C_6
REMARK    4  A    between atoms: C_5  and  C_12
REMARK    5  A    between atoms: C_15  and  C_16
REMARK    6  A    between atoms: C_15  and  C_20
REMARK    7  A    between atoms: C_16  and  C_17
REMARK    8  A    between atoms: C_20  and  N_21
REMARK                            x       y       z     vdW  Elec       q    Type
REMARK                         _______ _______ _______ _____ _____    ______ ____
ROOT
ATOM      1  N   UNL     1      66.858  31.488 116.754  0.00  0.00    -0.303 N 
ATOM      2  H   UNL     1      66.384  32.401 116.701  0.00  0.00    +0.149 HD
ATOM      3  C   UNL     1      66.373  30.571 117.618  0.00  0.00    +0.218 C 
ATOM      4  O   UNL     1      66.876  29.430 117.757  0.00  0.00    -0.275 OA
ENDROOT
BRANCH   1   5
ATOM      5  C   UNL     1      68.056  31.257 115.859  0.00  0.00    +0.164 C 
BRANCH   5   6
ATOM      6  C   UNL     1      69.250  32.122 116.467  0.00  0.00    +0.234 C 
ATOM      7  N   UNL     1      70.031  31.457 117.363  0.00  0.00    -0.317 N 
ATOM      8  H   UNL     1      69.796  30.475 117.568  0.00  0.00    +0.148 HD
ATOM      9  C   UNL     1      71.195  32.050 118.063  0.00  0.00    +0.128 C 
ATOM     10  O   UNL     1      69.424  33.315 116.134  0.00  0.00    -0.274 OA
ENDBRANCH   5   6
BRANCH   5  12
ATOM     11  C   UNL     1      68.994  31.408 113.429  0.00  0.00    +0.013 C 
ATOM     12  C   UNL     1      67.724  31.563 114.309  0.00  0.00    -0.011 C 
ATOM     13  C   UNL     1      67.150  33.016 114.096  0.00  0.00    +0.013 C 
ATOM     14  C   UNL     1      66.654  30.585 113.684  0.00  0.00    +0.013 C 
ENDBRANCH   5  12
ENDBRANCH   1   5
BRANCH   3  15
ATOM     15  C   UNL     1      65.130  30.972 118.465  0.00  0.00    +0.093 C 
BRANCH  15  16
ATOM     16  C   UNL     1      65.441  31.007 120.017  0.00  0.00    +0.017 C 
BRANCH  16  17
ATOM     17  C   UNL     1      66.564  31.922 120.565  0.00  0.00    -0.016 C 
ATOM     18  C   UNL     1      66.692  31.711 122.062  0.00  0.00    +0.007 C 
ATOM     19  C   UNL     1      66.174  33.409 120.402  0.00  0.00    +0.007 C 
ENDBRANCH  16  17
ENDBRANCH  15  16
BRANCH  15  20
ATOM     20  C   UNL     1      64.046  29.877 118.145  0.00  0.00    +0.125 C 
BRANCH  20  21
ATOM     21  N   UNL     1      62.915  30.385 117.374  0.00  0.00    -0.298 N 
ATOM     22  O   UNL     1      63.171  30.861 116.210  0.00  0.00    -0.421 OA
ATOM     23  C   UNL     1      61.654  30.395 117.810  0.00  0.00    +0.131 C 
ATOM     24  O   UNL     1      60.737  30.822 117.192  0.00  0.00    -0.546 OA
ENDBRANCH  20  21
ENDBRANCH  15  20
ENDBRANCH   3  15
TORSDOF 8
ENDMDL
MODEL 9
REMARK VINA RESULT:      -5.6      5.239      7.927
REMARK  Name = LIGAND
REMARK  8 active torsions:
REMARK  status: ('A' for Active; 'I' for Inactive)
REMARK    1  A    between atoms: N_1  and  C_5
REMARK    2  A    between atoms: C_3  and  C_15
REMARK    3  A    between atoms: C_5  and  C_6
REMARK    4  A    between atoms: C_5  and  C_12
REMARK    5  A    between atoms: C_15  and  C_16
REMARK    6  A    between atoms: C_15  and  C_20
REMARK    7  A    between atoms: C_16  and  C_17
REMARK    8  A    between atoms: C_20  and  N_21
REMARK                            x       y       z     vdW  Elec       q    Type
REMARK                         _______ _______ _______ _____ _____    ______ ____
ROOT
ATOM      1  N   UNL     1      69.305  29.714 111.242  0.00  0.00    -0.303 N 
ATOM      2  H   UNL     1      68.672  29.124 110.682  0.00  0.00    +0.149 HD
ATOM      3  C   UNL     1      68.798  30.332 112.330  0.00  0.00    +0.218 C 
ATOM      4  O   UNL     1      69.484  31.069 113.079  0.00  0.00    -0.275 OA
ENDROOT
BRANCH   1   5
ATOM      5  C   UNL     1      70.744  29.834 110.794  0.00  0.00    +0.164 C 
BRANCH   5   6
ATOM      6  C   UNL     1      70.710  30.390 109.300  0.00  0.00    +0.234 C 
ATOM      7  N   UNL     1      71.505  31.474 109.082  0.00  0.00    -0.317 N 
ATOM      8  H   UNL     1      72.052  31.836 109.877  0.00  0.00    +0.148 HD
ATOM      9  C   UNL     1      71.637  32.169 107.780  0.00  0.00    +0.128 C 
ATOM     10  O   UNL     1      69.994  29.857 108.424  0.00  0.00    -0.274 OA
ENDBRANCH   5   6
BRANCH   5  12
ATOM     11  C   UNL     1      72.563  28.238 109.818  0.00  0.00    +0.013 C 
ATOM     12  C   UNL     1      71.556  28.450 110.979  0.00  0.00    -0.011 C 
ATOM     13  C   UNL     1      70.598  27.199 111.037  0.00  0.00    +0.013 C 
ATOM     14  C   UNL     1      72.416  28.391 112.301  0.00  0.00    +0.013 C 
ENDBRANCH   5  12
ENDBRANCH   1   5
BRANCH   3  15
ATOM     15  C   UNL     1      67.292  30.100 112.650  0.00  0.00    +0.093 C 
BRANCH  15  16
ATOM     16  C   UNL     1      66.825  30.867 113.954  0.00  0.00    +0.017 C 
BRANCH  16  17
ATOM     17  C   UNL     1      66.150  30.092 115.113  0.00  0.00    -0.016 C 
ATOM     18  C   UNL     1      64.653  30.337 115.069  0.00  0.00    +0.007 C 
ATOM     19  C   UNL     1      66.608  30.656 116.477  0.00  0.00    +0.007 C 
ENDBRANCH  16  17
ENDBRANCH  15  16
BRANCH  15  20
ATOM     20  C   UNL     1      67.150  28.544 112.847  0.00  0.00    +0.125 C 
BRANCH  20  21
ATOM     21  N   UNL     1      66.125  27.942 111.998  0.00  0.00    -0.298 N 
ATOM     22  O   UNL     1      64.956  27.803 112.508  0.00  0.00    -0.421 OA
ATOM     23  C   UNL     1      66.336  27.522 110.750  0.00  0.00    +0.131 C 
ATOM     24  O   UNL     1      65.511  27.019 110.066  0.00  0.00    -0.546 OA
ENDBRANCH  20  21
ENDBRANCH  15  20
ENDBRANCH   3  15
TORSDOF 8
ENDMDL
MODEL 10
REMARK VINA RESULT:      -5.5      2.029      3.867
REMARK  Name = LIGAND
REMARK  8 active torsions:
REMARK  status: ('A' for Active; 'I' for Inactive)
REMARK    1  A    between atoms: N_1  and  C_5
REMARK    2  A    between atoms: C_3  and  C_15
REMARK    3  A    between atoms: C_5  and  C_6
REMARK    4  A    between atoms: C_5  and  C_12
REMARK    5  A    between atoms: C_15  and  C_16
REMARK    6  A    between atoms: C_15  and  C_20
REMARK    7  A    between atoms: C_16  and  C_17
REMARK    8  A    between atoms: C_20  and  N_21
REMARK                            x       y       z     vdW  Elec       q    Type
REMARK                         _______ _______ _______ _____ _____    ______ ____
ROOT
ATOM      1  N   UNL     1      65.994  32.009 120.539  0.00  0.00    -0.303 N 
ATOM      2  H   UNL     1      65.671  31.080 120.845  0.00  0.00    +0.149 HD
ATOM      3  C   UNL     1      65.963  32.289 119.219  0.00  0.00    +0.218 C 
ATOM      4  O   UNL     1      66.332  33.391 118.745  0.00  0.00    -0.275 OA
ENDROOT
BRANCH   1   5
ATOM      5  C   UNL     1      66.475  32.976 121.598  0.00  0.00    +0.164 C 
BRANCH   5   6
ATOM      6  C   UNL     1      67.908  33.493 121.123  0.00  0.00    +0.234 C 
ATOM      7  N   UNL     1      67.974  34.832 120.883  0.00  0.00    -0.317 N 
ATOM      8  H   UNL     1      67.120  35.388 121.026  0.00  0.00    +0.148 HD
ATOM      9  C   UNL     1      69.194  35.541 120.430  0.00  0.00    +0.128 C 
ATOM     10  O   UNL     1      68.869  32.705 120.985  0.00  0.00    -0.274 OA
ENDBRANCH   5   6
BRANCH   5  12
ATOM     11  C   UNL     1      66.790  30.811 123.019  0.00  0.00    +0.013 C 
ATOM     12  C   UNL     1      66.449  32.324 123.075  0.00  0.00    -0.011 C 
ATOM     13  C   UNL     1      65.047  32.488 123.776  0.00  0.00    +0.013 C 
ATOM     14  C   UNL     1      67.500  32.958 124.067  0.00  0.00    +0.013 C 
ENDBRANCH   5  12
ENDBRANCH   1   5
BRANCH   3  15
ATOM     15  C   UNL     1      65.437  31.178 118.263  0.00  0.00    +0.093 C 
BRANCH  15  16
ATOM     16  C   UNL     1      64.399  30.213 118.970  0.00  0.00    +0.017 C 
BRANCH  16  17
ATOM     17  C   UNL     1      63.025  29.933 118.312  0.00  0.00    -0.016 C 
ATOM     18  C   UNL     1      62.916  28.452 118.000  0.00  0.00    +0.007 C 
ATOM     19  C   UNL     1      62.931  30.639 116.940  0.00  0.00    +0.007 C 
ENDBRANCH  16  17
ENDBRANCH  15  16
BRANCH  15  20
ATOM     20  C   UNL     1      66.718  30.379 117.820  0.00  0.00    +0.125 C 
BRANCH  20  21
ATOM     21  N   UNL     1      66.455  29.392 116.776  0.00  0.00    -0.298 N 
ATOM     22  O   UNL     1      66.472  28.157 117.124  0.00  0.00    -0.421 OA
ATOM     23  C   UNL     1      66.218  29.696 115.498  0.00  0.00    +0.131 C 
ATOM     24  O   UNL     1      66.021  28.897 114.647  0.00  0.00    -0.546 OA
ENDBRANCH  20  21
ENDBRANCH  15  20
ENDBRANCH   3  15
TORSDOF 8
ENDMDL
MODEL 11
REMARK VINA RESULT:      -5.3      2.522      4.412
REMARK  Name = LIGAND
REMARK  8 active torsions:
REMARK  status: ('A' for Active; 'I' for Inactive)
REMARK    1  A    between atoms: N_1  and  C_5
REMARK    2  A    between atoms: C_3  and  C_15
REMARK    3  A    between atoms: C_5  and  C_6
REMARK    4  A    between atoms: C_5  and  C_12
REMARK    5  A    between atoms: C_15  and  C_16
REMARK    6  A    between atoms: C_15  and  C_20
REMARK    7  A    between atoms: C_16  and  C_17
REMARK    8  A    between atoms: C_20  and  N_21
REMARK                            x       y       z     vdW  Elec       q    Type
REMARK                         _______ _______ _______ _____ _____    ______ ____
ROOT
ATOM      1  N   UNL     1      67.089  31.971 120.495  0.00  0.00    -0.303 N 
ATOM      2  H   UNL     1      67.531  31.045 120.405  0.00  0.00    +0.149 HD
ATOM      3  C   UNL     1      66.176  32.331 119.567  0.00  0.00    +0.218 C 
ATOM      4  O   UNL     1      65.580  33.435 119.588  0.00  0.00    -0.275 OA
ENDROOT
BRANCH   1   5
ATOM      5  C   UNL     1      67.503  32.845 121.658  0.00  0.00    +0.164 C 
BRANCH   5   6
ATOM      6  C   UNL     1      69.041  33.203 121.432  0.00  0.00    +0.234 C 
ATOM      7  N   UNL     1      69.552  32.776 120.244  0.00  0.00    -0.317 N 
ATOM      8  H   UNL     1      68.922  32.272 119.604  0.00  0.00    +0.148 HD
ATOM      9  C   UNL     1      70.954  32.986 119.812  0.00  0.00    +0.128 C 
ATOM     10  O   UNL     1      69.698  33.820 122.298  0.00  0.00    -0.274 OA
ENDBRANCH   5   6
BRANCH   5  12
ATOM     11  C   UNL     1      66.842  33.232 124.152  0.00  0.00    +0.013 C 
ATOM     12  C   UNL     1      67.173  32.159 123.081  0.00  0.00    -0.011 C 
ATOM     13  C   UNL     1      68.372  31.284 123.615  0.00  0.00    +0.013 C 
ATOM     14  C   UNL     1      65.924  31.195 123.047  0.00  0.00    +0.013 C 
ENDBRANCH   5  12
ENDBRANCH   1   5
BRANCH   3  15
ATOM     15  C   UNL     1      65.866  31.309 118.434  0.00  0.00    +0.093 C 
BRANCH  15  16
ATOM     16  C   UNL     1      64.680  30.329 118.811  0.00  0.00    +0.017 C 
BRANCH  16  17
ATOM     17  C   UNL     1      63.785  29.728 117.698  0.00  0.00    -0.016 C 
ATOM     18  C   UNL     1      62.818  30.792 117.210  0.00  0.00    +0.007 C 
ATOM     19  C   UNL     1      62.890  28.607 118.274  0.00  0.00    +0.007 C 
ENDBRANCH  16  17
ENDBRANCH  15  16
BRANCH  15  20
ATOM     20  C   UNL     1      67.202  30.503 118.231  0.00  0.00    +0.125 C 
BRANCH  20  21
ATOM     21  N   UNL     1      68.066  31.061 117.194  0.00  0.00    -0.298 N 
ATOM     22  O   UNL     1      69.302  31.228 117.495  0.00  0.00    -0.421 OA
ATOM     23  C   UNL     1      67.647  31.414 115.977  0.00  0.00    +0.131 C 
ATOM     24  O   UNL     1      68.343  31.881 115.141  0.00  0.00    -0.546 OA
ENDBRANCH  20  21
ENDBRANCH  15  20
ENDBRANCH   3  15
TORSDOF 8
ENDMDL
MODEL 12
REMARK VINA RESULT:      -5.3      3.710      6.790
REMARK  Name = LIGAND
REMARK  8 active torsions:
REMARK  status: ('A' for Active; 'I' for Inactive)
REMARK    1  A    between atoms: N_1  and  C_5
REMARK    2  A    between atoms: C_3  and  C_15
REMARK    3  A    between atoms: C_5  and  C_6
REMARK    4  A    between atoms: C_5  and  C_12
REMARK    5  A    between atoms: C_15  and  C_16
REMARK    6  A    between atoms: C_15  and  C_20
REMARK    7  A    between atoms: C_16  and  C_17
REMARK    8  A    between atoms: C_20  and  N_21
REMARK                            x       y       z     vdW  Elec       q    Type
REMARK                         _______ _______ _______ _____ _____    ______ ____
ROOT
ATOM      1  N   UNL     1      67.827  29.221 112.987  0.00  0.00    -0.303 N 
ATOM      2  H   UNL     1      68.471  29.771 113.572  0.00  0.00    +0.149 HD
ATOM      3  C   UNL     1      66.607  28.930 113.487  0.00  0.00    +0.218 C 
ATOM      4  O   UNL     1      65.749  28.267 112.855  0.00  0.00    -0.275 OA
ENDROOT
BRANCH   1   5
ATOM      5  C   UNL     1      68.305  28.788 111.618  0.00  0.00    +0.164 C 
BRANCH   5   6
ATOM      6  C   UNL     1      69.851  28.428 111.771  0.00  0.00    +0.234 C 
ATOM      7  N   UNL     1      70.214  27.245 111.203  0.00  0.00    -0.317 N 
ATOM      8  H   UNL     1      69.483  26.695 110.730  0.00  0.00    +0.148 HD
ATOM      9  C   UNL     1      71.591  26.697 111.217  0.00  0.00    +0.128 C 
ATOM     10  O   UNL     1      70.638  29.188 112.376  0.00  0.00    -0.274 OA
ENDBRANCH   5   6
BRANCH   5  12
ATOM     11  C   UNL     1      68.028  31.325 111.074  0.00  0.00    +0.013 C 
ATOM     12  C   UNL     1      67.978  29.890 110.484  0.00  0.00    -0.011 C 
ATOM     13  C   UNL     1      66.560  29.673 109.831  0.00  0.00    +0.013 C 
ATOM     14  C   UNL     1      69.005  29.889 109.285  0.00  0.00    +0.013 C 
ENDBRANCH   5  12
ENDBRANCH   1   5
BRANCH   3  15
ATOM     15  C   UNL     1      66.275  29.454 114.915  0.00  0.00    +0.093 C 
BRANCH  15  16
ATOM     16  C   UNL     1      64.758  29.225 115.306  0.00  0.00    +0.017 C 
BRANCH  16  17
ATOM     17  C   UNL     1      64.268  29.543 116.741  0.00  0.00    -0.016 C 
ATOM     18  C   UNL     1      63.809  28.258 117.405  0.00  0.00    +0.007 C 
ATOM     19  C   UNL     1      63.010  30.440 116.694  0.00  0.00    +0.007 C 
ENDBRANCH  16  17
ENDBRANCH  15  16
BRANCH  15  20
ATOM     20  C   UNL     1      66.607  30.992 114.875  0.00  0.00    +0.125 C 
BRANCH  20  21
ATOM     21  N   UNL     1      67.671  31.382 115.795  0.00  0.00    -0.298 N 
ATOM     22  O   UNL     1      68.640  32.067 115.307  0.00  0.00    -0.421 OA
ATOM     23  C   UNL     1      67.698  31.060 117.090  0.00  0.00    +0.131 C 
ATOM     24  O   UNL     1      68.568  31.363 117.834  0.00  0.00    -0.546 OA
ENDBRANCH  20  21
ENDBRANCH  15  20
ENDBRANCH   3  15
TORSDOF 8
ENDMDL
MODEL 13
REMARK VINA RESULT:      -5.2      3.117      6.600
REMARK  Name = LIGAND
REMARK  8 active torsions:
REMARK  status: ('A' for Active; 'I' for Inactive)
REMARK    1  A    between atoms: N_1  and  C_5
REMARK    2  A    between atoms: C_3  and  C_15
REMARK    3  A    between atoms: C_5  and  C_6
REMARK    4  A    between atoms: C_5  and  C_12
REMARK    5  A    between atoms: C_15  and  C_16
REMARK    6  A    between atoms: C_15  and  C_20
REMARK    7  A    between atoms: C_16  and  C_17
REMARK    8  A    between atoms: C_20  and  N_21
REMARK                            x       y       z     vdW  Elec       q    Type
REMARK                         _______ _______ _______ _____ _____    ______ ____
ROOT
ATOM      1  N   UNL     1      67.449  30.245 113.309  0.00  0.00    -0.303 N 
ATOM      2  H   UNL     1      67.414  29.261 113.613  0.00  0.00    +0.149 HD
ATOM      3  C   UNL     1      66.927  31.182 114.129  0.00  0.00    +0.218 C 
ATOM      4  O   UNL     1      66.921  32.406 113.852  0.00  0.00    -0.275 OA
ENDROOT
BRANCH   1   5
ATOM      5  C   UNL     1      68.082  30.551 111.970  0.00  0.00    +0.164 C 
BRANCH   5   6
ATOM      6  C   UNL     1      67.332  29.642 110.895  0.00  0.00    +0.234 C 
ATOM      7  N   UNL     1      66.784  28.503 111.402  0.00  0.00    -0.317 N 
ATOM      8  H   UNL     1      66.892  28.326 112.411  0.00  0.00    +0.148 HD
ATOM      9  C   UNL     1      66.042  27.501 110.600  0.00  0.00    +0.128 C 
ATOM     10  O   UNL     1      67.277  29.972 109.690  0.00  0.00    -0.274 OA
ENDBRANCH   5   6
BRANCH   5  12
ATOM     11  C   UNL     1      70.077  28.870 112.039  0.00  0.00    +0.013 C 
ATOM     12  C   UNL     1      69.687  30.371 112.001  0.00  0.00    -0.011 C 
ATOM     13  C   UNL     1      70.343  31.084 113.245  0.00  0.00    +0.013 C 
ATOM     14  C   UNL     1      70.416  30.966 110.734  0.00  0.00    +0.013 C 
ENDBRANCH   5  12
ENDBRANCH   1   5
BRANCH   3  15
ATOM     15  C   UNL     1      66.313  30.695 115.474  0.00  0.00    +0.093 C 
BRANCH  15  16
ATOM     16  C   UNL     1      67.315  30.855 116.690  0.00  0.00    +0.017 C 
BRANCH  16  17
ATOM     17  C   UNL     1      66.878  31.625 117.960  0.00  0.00    -0.016 C 
ATOM     18  C   UNL     1      68.098  32.266 118.597  0.00  0.00    +0.007 C 
ATOM     19  C   UNL     1      66.340  30.644 119.026  0.00  0.00    +0.007 C 
ENDBRANCH  16  17
ENDBRANCH  15  16
BRANCH  15  20
ATOM     20  C   UNL     1      65.968  29.177 115.242  0.00  0.00    +0.125 C 
BRANCH  20  21
ATOM     21  N   UNL     1      65.174  28.589 116.318  0.00  0.00    -0.298 N 
ATOM     22  O   UNL     1      65.754  27.716 117.058  0.00  0.00    -0.421 OA
ATOM     23  C   UNL     1      63.898  28.893 116.560  0.00  0.00    +0.131 C 
ATOM     24  O   UNL     1      63.248  28.406 117.422  0.00  0.00    -0.546 OA
ENDBRANCH  20  21
ENDBRANCH  15  20
ENDBRANCH   3  15
TORSDOF 8
ENDMDL
MODEL 14
REMARK VINA RESULT:      -5.1      2.416      4.795
REMARK  Name = LIGAND
REMARK  8 active torsions:
REMARK  status: ('A' for Active; 'I' for Inactive)
REMARK    1  A    between atoms: N_1  and  C_5
REMARK    2  A    between atoms: C_3  and  C_15
REMARK    3  A    between atoms: C_5  and  C_6
REMARK    4  A    between atoms: C_5  and  C_12
REMARK    5  A    between atoms: C_15  and  C_16
REMARK    6  A    between atoms: C_15  and  C_20
REMARK    7  A    between atoms: C_16  and  C_17
REMARK    8  A    between atoms: C_20  and  N_21
REMARK                            x       y       z     vdW  Elec       q    Type
REMARK                         _______ _______ _______ _____ _____    ______ ____
ROOT
ATOM      1  N   UNL     1      68.165  31.338 117.902  0.00  0.00    -0.303 N 
ATOM      2  H   UNL     1      68.289  31.547 118.903  0.00  0.00    +0.149 HD
ATOM      3  C   UNL     1      67.081  30.623 117.532  0.00  0.00    +0.218 C 
ATOM      4  O   UNL     1      66.838  30.317 116.340  0.00  0.00    -0.275 OA
ENDROOT
BRANCH   1   5
ATOM      5  C   UNL     1      69.210  31.849 116.935  0.00  0.00    +0.164 C 
BRANCH   5   6
ATOM      6  C   UNL     1      70.612  31.753 117.690  0.00  0.00    +0.234 C 
ATOM      7  N   UNL     1      71.577  31.078 117.006  0.00  0.00    -0.317 N 
ATOM      8  H   UNL     1      71.332  30.698 116.081  0.00  0.00    +0.148 HD
ATOM      9  C   UNL     1      72.955  30.855 117.503  0.00  0.00    +0.128 C 
ATOM     10  O   UNL     1      70.777  32.259 118.821  0.00  0.00    -0.274 OA
ENDBRANCH   5   6
BRANCH   5  12
ATOM     11  C   UNL     1      68.035  34.129 117.414  0.00  0.00    +0.013 C 
ATOM     12  C   UNL     1      68.849  33.318 116.371  0.00  0.00    -0.011 C 
ATOM     13  C   UNL     1      68.015  33.256 115.034  0.00  0.00    +0.013 C 
ATOM     14  C   UNL     1      70.116  34.201 116.043  0.00  0.00    +0.013 C 
ENDBRANCH   5  12
ENDBRANCH   1   5
BRANCH   3  15
ATOM     15  C   UNL     1      66.102  30.175 118.656  0.00  0.00    +0.093 C 
BRANCH  15  16
ATOM     16  C   UNL     1      64.817  29.446 118.085  0.00  0.00    +0.017 C 
BRANCH  16  17
ATOM     17  C   UNL     1      63.410  30.044 118.331  0.00  0.00    -0.016 C 
ATOM     18  C   UNL     1      62.439  28.919 118.639  0.00  0.00    +0.007 C 
ATOM     19  C   UNL     1      62.869  30.696 117.038  0.00  0.00    +0.007 C 
ENDBRANCH  16  17
ENDBRANCH  15  16
BRANCH  15  20
ATOM     20  C   UNL     1      65.696  31.501 119.400  0.00  0.00    +0.125 C 
BRANCH  20  21
ATOM     21  N   UNL     1      66.449  31.733 120.630  0.00  0.00    -0.298 N 
ATOM     22  O   UNL     1      67.475  32.497 120.548  0.00  0.00    -0.421 OA
ATOM     23  C   UNL     1      66.142  31.191 121.810  0.00  0.00    +0.131 C 
ATOM     24  O   UNL     1      66.761  31.365 122.805  0.00  0.00    -0.546 OA
ENDBRANCH  20  21
ENDBRANCH  15  20
ENDBRANCH   3  15
TORSDOF 8
ENDMDL
MODEL 15
REMARK VINA RESULT:      -5.1      6.357      8.677
REMARK  Name = LIGAND
REMARK  8 active torsions:
REMARK  status: ('A' for Active; 'I' for Inactive)
REMARK    1  A    between atoms: N_1  and  C_5
REMARK    2  A    between atoms: C_3  and  C_15
REMARK    3  A    between atoms: C_5  and  C_6
REMARK    4  A    between atoms: C_5  and  C_12
REMARK    5  A    between atoms: C_15  and  C_16
REMARK    6  A    between atoms: C_15  and  C_20
REMARK    7  A    between atoms: C_16  and  C_17
REMARK    8  A    between atoms: C_20  and  N_21
REMARK                            x       y       z     vdW  Elec       q    Type
REMARK                         _______ _______ _______ _____ _____    ______ ____
ROOT
ATOM      1  N   UNL     1      71.588  28.774 112.026  0.00  0.00    -0.303 N 
ATOM      2  H   UNL     1      71.380  29.761 111.817  0.00  0.00    +0.149 HD
ATOM      3  C   UNL     1      70.758  27.832 111.528  0.00  0.00    +0.218 C 
ATOM      4  O   UNL     1      70.924  26.603 111.723  0.00  0.00    -0.275 OA
ENDROOT
BRANCH   1   5
ATOM      5  C   UNL     1      72.804  28.468 112.871  0.00  0.00    +0.164 C 
BRANCH   5   6
ATOM      6  C   UNL     1      72.925  29.649 113.937  0.00  0.00    +0.234 C 
ATOM      7  N   UNL     1      73.382  29.263 115.160  0.00  0.00    -0.317 N 
ATOM      8  H   UNL     1      73.610  28.267 115.294  0.00  0.00    +0.148 HD
ATOM      9  C   UNL     1      73.574  30.177 116.310  0.00  0.00    +0.128 C 
ATOM     10  O   UNL     1      72.609  30.823 113.644  0.00  0.00    -0.274 OA
ENDBRANCH   5   6
BRANCH   5  12
ATOM     11  C   UNL     1      74.600  26.759 112.058  0.00  0.00    +0.013 C 
ATOM     12  C   UNL     1      74.125  28.234 111.973  0.00  0.00    -0.011 C 
ATOM     13  C   UNL     1      75.320  29.163 112.415  0.00  0.00    +0.013 C 
ATOM     14  C   UNL     1      73.907  28.521 110.436  0.00  0.00    +0.013 C 
ENDBRANCH   5  12
ENDBRANCH   1   5
BRANCH   3  15
ATOM     15  C   UNL     1      69.550  28.319 110.675  0.00  0.00    +0.093 C 
BRANCH  15  16
ATOM     16  C   UNL     1      69.928  29.531 109.728  0.00  0.00    +0.017 C 
BRANCH  16  17
ATOM     17  C   UNL     1      68.815  30.313 108.987  0.00  0.00    -0.016 C 
ATOM     18  C   UNL     1      69.299  30.662 107.591  0.00  0.00    +0.007 C 
ATOM     19  C   UNL     1      68.565  31.675 109.675  0.00  0.00    +0.007 C 
ENDBRANCH  16  17
ENDBRANCH  15  16
BRANCH  15  20
ATOM     20  C   UNL     1      68.460  28.758 111.722  0.00  0.00    +0.125 C 
BRANCH  20  21
ATOM     21  N   UNL     1      67.171  28.097 111.531  0.00  0.00    -0.298 N 
ATOM     22  O   UNL     1      66.968  27.535 110.396  0.00  0.00    -0.421 OA
ATOM     23  C   UNL     1      66.204  28.060 112.450  0.00  0.00    +0.131 C 
ATOM     24  O   UNL     1      65.153  27.539 112.292  0.00  0.00    -0.546 OA
ENDBRANCH  20  21
ENDBRANCH  15  20
ENDBRANCH   3  15
TORSDOF 8
ENDMDL
MODEL 16
REMARK VINA RESULT:      -5.1      2.086      3.063
REMARK  Name = LIGAND
REMARK  8 active torsions:
REMARK  status: ('A' for Active; 'I' for Inactive)
REMARK    1  A    between atoms: N_1  and  C_5
REMARK    2  A    between atoms: C_3  and  C_15
REMARK    3  A    between atoms: C_5  and  C_6
REMARK    4  A    between atoms: C_5  and  C_12
REMARK    5  A    between atoms: C_15  and  C_16
REMARK    6  A    between atoms: C_15  and  C_20
REMARK    7  A    between atoms: C_16  and  C_17
REMARK    8  A    between atoms: C_20  and  N_21
REMARK                            x       y       z     vdW  Elec       q    Type
REMARK                         _______ _______ _______ _____ _____    ______ ____
ROOT
ATOM      1  N   UNL     1      67.068  32.077 115.994  0.00  0.00    -0.303 N 
ATOM      2  H   UNL     1      66.136  32.189 116.418  0.00  0.00    +0.149 HD
ATOM      3  C   UNL     1      67.187  31.251 114.933  0.00  0.00    +0.218 C 
ATOM      4  O   UNL     1      68.276  31.047 114.344  0.00  0.00    -0.275 OA
ENDROOT
BRANCH   1   5
ATOM      5  C   UNL     1      68.220  32.848 116.599  0.00  0.00    +0.164 C 
BRANCH   5   6
ATOM      6  C   UNL     1      68.111  32.662 118.179  0.00  0.00    +0.234 C 
ATOM      7  N   UNL     1      66.875  32.300 118.622  0.00  0.00    -0.317 N 
ATOM      8  H   UNL     1      66.131  32.176 117.920  0.00  0.00    +0.148 HD
ATOM      9  C   UNL     1      66.527  32.073 120.044  0.00  0.00    +0.128 C 
ATOM     10  O   UNL     1      69.096  32.850 118.925  0.00  0.00    -0.274 OA
ENDBRANCH   5   6
BRANCH   5  12
ATOM     11  C   UNL     1      67.640  34.520 114.681  0.00  0.00    +0.013 C 
ATOM     12  C   UNL     1      68.250  34.384 116.102  0.00  0.00    -0.011 C 
ATOM     13  C   UNL     1      69.713  34.972 116.068  0.00  0.00    +0.013 C 
ATOM     14  C   UNL     1      67.417  35.364 117.017  0.00  0.00    +0.013 C 
ENDBRANCH   5  12
ENDBRANCH   1   5
BRANCH   3  15
ATOM     15  C   UNL     1      65.898  30.533 114.436  0.00  0.00    +0.093 C 
BRANCH  15  16
ATOM     16  C   UNL     1      64.809  30.386 115.576  0.00  0.00    +0.017 C 
BRANCH  16  17
ATOM     17  C   UNL     1      64.662  29.048 116.342  0.00  0.00    -0.016 C 
ATOM     18  C   UNL     1      63.253  28.944 116.896  0.00  0.00    +0.007 C 
ATOM     19  C   UNL     1      65.582  29.035 117.585  0.00  0.00    +0.007 C 
ENDBRANCH  16  17
ENDBRANCH  15  16
BRANCH  15  20
ATOM     20  C   UNL     1      66.380  29.116 113.948  0.00  0.00    +0.125 C 
BRANCH  20  21
ATOM     21  N   UNL     1      65.816  28.721 112.660  0.00  0.00    -0.298 N 
ATOM     22  O   UNL     1      64.836  27.893 112.683  0.00  0.00    -0.421 OA
ATOM     23  C   UNL     1      66.265  29.153 111.481  0.00  0.00    +0.131 C 
ATOM     24  O   UNL     1      65.820  28.822 110.435  0.00  0.00    -0.546 OA
ENDBRANCH  20  21
ENDBRANCH  15  20
ENDBRANCH   3  15
TORSDOF 8
ENDMDL
MODEL 17
REMARK VINA RESULT:      -5.0      6.472      8.313
REMARK  Name = LIGAND
REMARK  8 active torsions:
REMARK  status: ('A' for Active; 'I' for Inactive)
REMARK    1  A    between atoms: N_1  and  C_5
REMARK    2  A    between atoms: C_3  and  C_15
REMARK    3  A    between atoms: C_5  and  C_6
REMARK    4  A    between atoms: C_5  and  C_12
REMARK    5  A    between atoms: C_15  and  C_16
REMARK    6  A    between atoms: C_15  and  C_20
REMARK    7  A    between atoms: C_16  and  C_17
REMARK    8  A    between atoms: C_20  and  N_21
REMARK                            x       y       z     vdW  Elec       q    Type
REMARK                         _______ _______ _______ _____ _____    ______ ____
ROOT
ATOM      1  N   UNL     1      70.419  29.378 111.774  0.00  0.00    -0.303 N 
ATOM      2  H   UNL     1      70.513  30.256 111.244  0.00  0.00    +0.149 HD
ATOM      3  C   UNL     1      69.192  28.822 111.866  0.00  0.00    +0.218 C 
ATOM      4  O   UNL     1      68.971  27.753 112.486  0.00  0.00    -0.275 OA
ENDROOT
BRANCH   1   5
ATOM      5  C   UNL     1      71.664  28.790 112.399  0.00  0.00    +0.164 C 
BRANCH   5   6
ATOM      6  C   UNL     1      72.486  30.012 113.010  0.00  0.00    +0.234 C 
ATOM      7  N   UNL     1      72.797  29.882 114.329  0.00  0.00    -0.317 N 
ATOM      8  H   UNL     1      72.487  29.027 114.813  0.00  0.00    +0.148 HD
ATOM      9  C   UNL     1      73.550  30.887 115.116  0.00  0.00    +0.128 C 
ATOM     10  O   UNL     1      72.798  31.000 112.309  0.00  0.00    -0.274 OA
ENDBRANCH   5   6
BRANCH   5  12
ATOM     11  C   UNL     1      73.993  27.809 111.750  0.00  0.00    +0.013 C 
ATOM     12  C   UNL     1      72.492  27.873 111.359  0.00  0.00    -0.011 C 
ATOM     13  C   UNL     1      72.390  28.408 109.879  0.00  0.00    +0.013 C 
ATOM     14  C   UNL     1      72.003  26.374 111.306  0.00  0.00    +0.013 C 
ENDBRANCH   5  12
ENDBRANCH   1   5
BRANCH   3  15
ATOM     15  C   UNL     1      68.016  29.558 111.161  0.00  0.00    +0.093 C 
BRANCH  15  16
ATOM     16  C   UNL     1      68.306  31.101 110.953  0.00  0.00    +0.017 C 
BRANCH  16  17
ATOM     17  C   UNL     1      68.704  31.636 109.556  0.00  0.00    -0.016 C 
ATOM     18  C   UNL     1      68.924  30.462 108.619  0.00  0.00    +0.007 C 
ATOM     19  C   UNL     1      70.071  32.355 109.623  0.00  0.00    +0.007 C 
ENDBRANCH  16  17
ENDBRANCH  15  16
BRANCH  15  20
ATOM     20  C   UNL     1      66.777  29.354 112.110  0.00  0.00    +0.125 C 
BRANCH  20  21
ATOM     21  N   UNL     1      65.914  28.246 111.709  0.00  0.00    -0.298 N 
ATOM     22  O   UNL     1      64.993  27.899 112.533  0.00  0.00    -0.421 OA
ATOM     23  C   UNL     1      66.036  27.577 110.561  0.00  0.00    +0.131 C 
ATOM     24  O   UNL     1      65.347  26.668 110.242  0.00  0.00    -0.546 OA
ENDBRANCH  20  21
ENDBRANCH  15  20
ENDBRANCH   3  15
TORSDOF 8
ENDMDL
MODEL 18
REMARK VINA RESULT:      -5.0      2.333      5.000
REMARK  Name = LIGAND
REMARK  8 active torsions:
REMARK  status: ('A' for Active; 'I' for Inactive)
REMARK    1  A    between atoms: N_1  and  C_5
REMARK    2  A    between atoms: C_3  and  C_15
REMARK    3  A    between atoms: C_5  and  C_6
REMARK    4  A    between atoms: C_5  and  C_12
REMARK    5  A    between atoms: C_15  and  C_16
REMARK    6  A    between atoms: C_15  and  C_20
REMARK    7  A    between atoms: C_16  and  C_17
REMARK    8  A    between atoms: C_20  and  N_21
REMARK                            x       y       z     vdW  Elec       q    Type
REMARK                         _______ _______ _______ _____ _____    ______ ____
ROOT
ATOM      1  N   UNL     1      67.036  31.891 117.175  0.00  0.00    -0.303 N 
ATOM      2  H   UNL     1      66.791  30.917 116.950  0.00  0.00    +0.149 HD
ATOM      3  C   UNL     1      66.573  32.411 118.332  0.00  0.00    +0.218 C 
ATOM      4  O   UNL     1      66.816  33.586 118.700  0.00  0.00    -0.275 OA
ENDROOT
BRANCH   1   5
ATOM      5  C   UNL     1      67.895  32.653 116.190  0.00  0.00    +0.164 C 
BRANCH   5   6
ATOM      6  C   UNL     1      67.458  32.165 114.736  0.00  0.00    +0.234 C 
ATOM      7  N   UNL     1      67.079  30.858 114.668  0.00  0.00    -0.317 N 
ATOM      8  H   UNL     1      67.101  30.307 115.538  0.00  0.00    +0.148 HD
ATOM      9  C   UNL     1      66.637  30.177 113.429  0.00  0.00    +0.128 C 
ATOM     10  O   UNL     1      67.481  32.941 113.756  0.00  0.00    -0.274 OA
ENDBRANCH   5   6
BRANCH   5  12
ATOM     11  C   UNL     1      69.712  31.421 117.600  0.00  0.00    +0.013 C 
ATOM     12  C   UNL     1      69.470  32.497 116.508  0.00  0.00    -0.011 C 
ATOM     13  C   UNL     1      70.118  33.849 116.996  0.00  0.00    +0.013 C 
ATOM     14  C   UNL     1      70.326  32.038 115.264  0.00  0.00    +0.013 C 
ENDBRANCH   5  12
ENDBRANCH   1   5
BRANCH   3  15
ATOM     15  C   UNL     1      65.702  31.488 119.234  0.00  0.00    +0.093 C 
BRANCH  15  16
ATOM     16  C   UNL     1      66.360  31.230 120.651  0.00  0.00    +0.017 C 
BRANCH  16  17
ATOM     17  C   UNL     1      66.017  32.152 121.847  0.00  0.00    -0.016 C 
ATOM     18  C   UNL     1      67.204  33.052 122.137  0.00  0.00    +0.007 C 
ATOM     19  C   UNL     1      65.824  31.317 123.133  0.00  0.00    +0.007 C 
ENDBRANCH  16  17
ENDBRANCH  15  16
BRANCH  15  20
ATOM     20  C   UNL     1      65.571  30.139 118.434  0.00  0.00    +0.125 C 
BRANCH  20  21
ATOM     21  N   UNL     1      64.204  29.840 118.017  0.00  0.00    -0.298 N 
ATOM     22  O   UNL     1      63.838  28.611 118.059  0.00  0.00    -0.421 OA
ATOM     23  C   UNL     1      63.334  30.755 117.587  0.00  0.00    +0.131 C 
ATOM     24  O   UNL     1      62.230  30.513 117.233  0.00  0.00    -0.546 OA
ENDBRANCH  20  21
ENDBRANCH  15  20
ENDBRANCH   3  15
TORSDOF 8
ENDMDL
MODEL 19
REMARK VINA RESULT:      -4.9      5.218      8.735
REMARK  Name = LIGAND
REMARK  8 active torsions:
REMARK  status: ('A' for Active; 'I' for Inactive)
REMARK    1  A    between atoms: N_1  and  C_5
REMARK    2  A    between atoms: C_3  and  C_15
REMARK    3  A    between atoms: C_5  and  C_6
REMARK    4  A    between atoms: C_5  and  C_12
REMARK    5  A    between atoms: C_15  and  C_16
REMARK    6  A    between atoms: C_15  and  C_20
REMARK    7  A    between atoms: C_16  and  C_17
REMARK    8  A    between atoms: C_20  and  N_21
REMARK                            x       y       z     vdW  Elec       q    Type
REMARK                         _______ _______ _______ _____ _____    ______ ____
ROOT
ATOM      1  N   UNL     1      68.881  29.870 112.427  0.00  0.00    -0.303 N 
ATOM      2  H   UNL     1      69.131  29.186 113.155  0.00  0.00    +0.149 HD
ATOM      3  C   UNL     1      69.880  30.556 111.832  0.00  0.00    +0.218 C 
ATOM      4  O   UNL     1      69.683  31.410 110.933  0.00  0.00    -0.275 OA
ENDROOT
BRANCH   1   5
ATOM      5  C   UNL     1      67.417  30.046 112.090  0.00  0.00    +0.164 C 
BRANCH   5   6
ATOM      6  C   UNL     1      66.659  30.288 113.472  0.00  0.00    +0.234 C 
ATOM      7  N   UNL     1      67.463  30.692 114.494  0.00  0.00    -0.317 N 
ATOM      8  H   UNL     1      68.468  30.808 114.298  0.00  0.00    +0.148 HD
ATOM      9  C   UNL     1      66.991  30.975 115.870  0.00  0.00    +0.128 C 
ATOM     10  O   UNL     1      65.427  30.106 113.578  0.00  0.00    -0.274 OA
ENDBRANCH   5   6
BRANCH   5  12
ATOM     11  C   UNL     1      67.998  27.913 110.703  0.00  0.00    +0.013 C 
ATOM     12  C   UNL     1      66.844  28.816 111.214  0.00  0.00    -0.011 C 
ATOM     13  C   UNL     1      66.013  29.307 109.968  0.00  0.00    +0.013 C 
ATOM     14  C   UNL     1      65.881  27.859 112.019  0.00  0.00    +0.013 C 
ENDBRANCH   5  12
ENDBRANCH   1   5
BRANCH   3  15
ATOM     15  C   UNL     1      71.334  30.253 112.298  0.00  0.00    +0.093 C 
BRANCH  15  16
ATOM     16  C   UNL     1      71.620  28.700 112.417  0.00  0.00    +0.017 C 
BRANCH  16  17
ATOM     17  C   UNL     1      72.406  27.967 111.301  0.00  0.00    -0.016 C 
ATOM     18  C   UNL     1      71.944  28.480 109.949  0.00  0.00    +0.007 C 
ATOM     19  C   UNL     1      72.057  26.461 111.298  0.00  0.00    +0.007 C 
ENDBRANCH  16  17
ENDBRANCH  15  16
BRANCH  15  20
ATOM     20  C   UNL     1      71.467  30.946 113.705  0.00  0.00    +0.125 C 
BRANCH  20  21
ATOM     21  N   UNL     1      72.756  30.711 114.350  0.00  0.00    -0.298 N 
ATOM     22  O   UNL     1      73.802  31.108 113.722  0.00  0.00    -0.421 OA
ATOM     23  C   UNL     1      72.905  30.105 115.530  0.00  0.00    +0.131 C 
ATOM     24  O   UNL     1      73.950  29.900 116.047  0.00  0.00    -0.546 OA
ENDBRANCH  20  21
ENDBRANCH  15  20
ENDBRANCH   3  15
TORSDOF 8
ENDMDL
MODEL 20
REMARK VINA RESULT:      -4.9      7.877     10.213
REMARK  Name = LIGAND
REMARK  8 active torsions:
REMARK  status: ('A' for Active; 'I' for Inactive)
REMARK    1  A    between atoms: N_1  and  C_5
REMARK    2  A    between atoms: C_3  and  C_15
REMARK    3  A    between atoms: C_5  and  C_6
REMARK    4  A    between atoms: C_5  and  C_12
REMARK    5  A    between atoms: C_15  and  C_16
REMARK    6  A    between atoms: C_15  and  C_20
REMARK    7  A    between atoms: C_16  and  C_17
REMARK    8  A    between atoms: C_20  and  N_21
REMARK                            x       y       z     vdW  Elec       q    Type
REMARK                         _______ _______ _______ _____ _____    ______ ____
ROOT
ATOM      1  N   UNL     1      73.457  27.686 111.598  0.00  0.00    -0.303 N 
ATOM      2  H   UNL     1      73.543  28.656 111.261  0.00  0.00    +0.149 HD
ATOM      3  C   UNL     1      72.291  27.041 111.379  0.00  0.00    +0.218 C 
ATOM      4  O   UNL     1      72.085  25.858 111.748  0.00  0.00    -0.275 OA
ENDROOT
BRANCH   1   5
ATOM      5  C   UNL     1      74.644  27.073 112.306  0.00  0.00    +0.164 C 
BRANCH   5   6
ATOM      6  C   UNL     1      74.526  27.497 113.839  0.00  0.00    +0.234 C 
ATOM      7  N   UNL     1      74.967  26.558 114.721  0.00  0.00    -0.317 N 
ATOM      8  H   UNL     1      75.333  25.674 114.338  0.00  0.00    +0.148 HD
ATOM      9  C   UNL     1      74.954  26.720 116.194  0.00  0.00    +0.128 C 
ATOM     10  O   UNL     1      74.055  28.607 114.172  0.00  0.00    -0.274 OA
ENDBRANCH   5   6
BRANCH   5  12
ATOM     11  C   UNL     1      76.921  28.322 112.557  0.00  0.00    +0.013 C 
ATOM     12  C   UNL     1      76.042  27.469 111.603  0.00  0.00    -0.011 C 
ATOM     13  C   UNL     1      75.831  28.280 110.268  0.00  0.00    +0.013 C 
ATOM     14  C   UNL     1      76.930  26.224 111.210  0.00  0.00    +0.013 C 
ENDBRANCH   5  12
ENDBRANCH   1   5
BRANCH   3  15
ATOM     15  C   UNL     1      71.169  27.819 110.632  0.00  0.00    +0.093 C 
BRANCH  15  16
ATOM     16  C   UNL     1      71.744  28.797 109.527  0.00  0.00    +0.017 C 
BRANCH  16  17
ATOM     17  C   UNL     1      71.116  30.199 109.327  0.00  0.00    -0.016 C 
ATOM     18  C   UNL     1      70.160  30.152 108.149  0.00  0.00    +0.007 C 
ATOM     19  C   UNL     1      72.201  31.222 108.922  0.00  0.00    +0.007 C 
ENDBRANCH  16  17
ENDBRANCH  15  16
BRANCH  15  20
ATOM     20  C   UNL     1      70.421  28.634 111.752  0.00  0.00    +0.125 C 
BRANCH  20  21
ATOM     21  N   UNL     1      68.972  28.673 111.573  0.00  0.00    -0.298 N 
ATOM     22  O   UNL     1      68.476  27.910 110.668  0.00  0.00    -0.421 OA
ATOM     23  C   UNL     1      68.150  29.455 112.276  0.00  0.00    +0.131 C 
ATOM     24  O   UNL     1      66.977  29.500 112.122  0.00  0.00    -0.546 OA
ENDBRANCH  20  21
ENDBRANCH  15  20
ENDBRANCH   3  15
TORSDOF 8
ENDMDL
