MODEL 1
REMARK VINA RESULT:   -12.318      0.000      0.000
REMARK ITER + INTRA:          -16.550
REMARK INTER:                 -13.809
REMARK INTRA:                  -2.741
REMARK CONF_INDEPENDENT:        1.492
REMARK UNBOUND:                 2.741
REMARK  5 active torsions:
REMARK  status: ('A' for Active; 'I' for Inactive)
REMARK    1  A    between atoms: C_15  and  N_1 
REMARK    2  A    between atoms: N_4  and  C_8 
REMARK    3  A    between atoms: C_16  and  C_15 
REMARK    4  A    between atoms: N_20  and  C_21 
REMARK    5  A    between atoms: C_22  and  C_21 
ROOT
ATOM      1  C   LIG d   1      20.067 132.056  -0.952  0.00  0.00    -0.040 A 
ATOM      2  C   LIG d   1      18.766 131.551  -0.822  0.00  0.00     0.010 A 
ATOM      3  C   LIG d   1      17.947 131.383  -1.943  0.00  0.00     0.023 A 
ATOM      4  C   LIG d   1      18.420 131.724  -3.233  0.00  0.00     0.044 A 
ATOM      5  C   LIG d   1      19.700 132.228  -3.380  0.00  0.00     0.023 A 
ATOM      6  C   LIG d   1      20.527 132.397  -2.245  0.00  0.00     0.010 A 
ATOM      7  C   LIG d   1      17.643 131.551  -4.296  0.00  0.00     0.099 C 
ATOM      8  N   LIG d   1      16.961 131.400  -5.237  0.00  0.00    -0.191 NA
ENDROOT
BRANCH   1   9
ATOM      9  C   LIG d   1      20.980 132.235   0.270  0.00  0.00     0.168 C 
BRANCH   9  10
ATOM     10  N   LIG d   1      20.290 132.772   1.467  0.00  0.00    -0.338 N 
ATOM     11  C   LIG d   1      20.184 132.095   2.594  0.00  0.00     0.209 A 
ATOM     12  N   LIG d   1      19.490 132.875   3.511  0.00  0.00    -0.254 NA
ATOM     13  C   LIG d   1      19.164 134.109   2.855  0.00  0.00     0.144 A 
ATOM     14  C   LIG d   1      19.679 133.984   1.616  0.00  0.00     0.058 A 
BRANCH  14  15
ATOM     15  C   LIG d   1      19.615 135.013   0.490  0.00  0.00     0.331 C 
BRANCH  15  16
ATOM     16  N   LIG d   1      18.386 134.796  -0.275  0.00  0.00     0.104 N 
ATOM     17  C   LIG d   1      18.641 135.353  -1.610  0.00  0.00     0.375 C 
ATOM     18  C   LIG d   1      17.535 134.892  -2.606  0.00  0.00     0.253 C 
ATOM     19  O   LIG d   1      17.736 134.950  -3.804  0.00  0.00    -0.271 OA
ATOM     20  N   LIG d   1      16.324 134.409  -2.098  0.00  0.00    -0.315 N 
ATOM     21  C   LIG d   1      16.155 134.367  -0.644  0.00  0.00     0.162 C 
ATOM     22  C   LIG d   1      17.083 135.180   0.275  0.00  0.00     0.293 C 
BRANCH  20  23
ATOM     23  C   LIG d   1      15.280 133.968  -2.879  0.00  0.00     0.038 A 
ATOM     24  C   LIG d   1      14.763 132.737  -2.505  0.00  0.00     0.053 A 
ATOM     25  C   LIG d   1      13.696 132.152  -3.188  0.00  0.00     0.036 A 
ATOM     26 CL   LIG d   1      13.129 130.624  -2.624  0.00  0.00    -0.084 Cl
ATOM     27  C   LIG d   1      13.126 132.821  -4.292  0.00  0.00     0.024 A 
ATOM     28  C   LIG d   1      13.635 134.080  -4.701  0.00  0.00     0.004 A 
ATOM     29  C   LIG d   1      14.711 134.670  -3.999  0.00  0.00     0.030 A 
ENDBRANCH  20  23
ENDBRANCH  15  16
ENDBRANCH  14  15
ENDBRANCH   9  10
ENDBRANCH   1   9
TORSDOF 5
ENDMDL
MODEL 2
REMARK VINA RESULT:   -12.068      2.490      4.714
REMARK ITER + INTRA:          -15.151
REMARK INTER:                 -13.559
REMARK INTRA:                  -1.592
REMARK CONF_INDEPENDENT:        1.492
REMARK UNBOUND:                 1.592
REMARK  5 active torsions:
REMARK  status: ('A' for Active; 'I' for Inactive)
REMARK    1  A    between atoms: C_15  and  N_1 
REMARK    2  A    between atoms: N_4  and  C_8 
REMARK    3  A    between atoms: C_16  and  C_15 
REMARK    4  A    between atoms: N_20  and  C_21 
REMARK    5  A    between atoms: C_22  and  C_21 
ROOT
ATOM      1  C   LIG d   1      17.374 135.949   0.887  0.00  0.00    -0.040 A 
ATOM      2  C   LIG d   1      16.375 135.733  -0.073  0.00  0.00     0.010 A 
ATOM      3  C   LIG d   1      15.119 136.334   0.051  0.00  0.00     0.023 A 
ATOM      4  C   LIG d   1      14.832 137.173   1.154  0.00  0.00     0.044 A 
ATOM      5  C   LIG d   1      15.803 137.394   2.114  0.00  0.00     0.023 A 
ATOM      6  C   LIG d   1      17.073 136.785   1.987  0.00  0.00     0.010 A 
ATOM      7  C   LIG d   1      13.641 137.751   1.261  0.00  0.00     0.099 C 
ATOM      8  N   LIG d   1      12.592 138.264   1.360  0.00  0.00    -0.191 NA
ENDROOT
BRANCH   1   9
ATOM      9  C   LIG d   1      18.760 135.304   0.756  0.00  0.00     0.168 C 
BRANCH   9  10
ATOM     10  N   LIG d   1      19.035 134.252   1.764  0.00  0.00    -0.338 N 
ATOM     11  C   LIG d   1      18.747 134.395   3.043  0.00  0.00     0.209 A 
ATOM     12  N   LIG d   1      19.125 133.236   3.711  0.00  0.00    -0.254 NA
ATOM     13  C   LIG d   1      19.681 132.346   2.732  0.00  0.00     0.144 A 
ATOM     14  C   LIG d   1      19.596 133.022   1.569  0.00  0.00     0.058 A 
BRANCH  14  15
ATOM     15  C   LIG d   1      20.053 132.539   0.194  0.00  0.00     0.331 C 
BRANCH  15  16
ATOM     16  N   LIG d   1      18.944 132.689  -0.749  0.00  0.00     0.104 N 
ATOM     17  C   LIG d   1      18.289 131.375  -0.809  0.00  0.00     0.375 C 
ATOM     18  C   LIG d   1      16.908 131.495  -1.522  0.00  0.00     0.253 C 
ATOM     19  O   LIG d   1      16.072 130.625  -1.375  0.00  0.00    -0.271 OA
ATOM     20  N   LIG d   1      16.653 132.616  -2.320  0.00  0.00    -0.315 N 
ATOM     21  C   LIG d   1      17.707 133.624  -2.450  0.00  0.00     0.162 C 
ATOM     22  C   LIG d   1      19.159 133.291  -2.068  0.00  0.00     0.293 C 
BRANCH  20  23
ATOM     23  C   LIG d   1      15.470 132.833  -2.991  0.00  0.00     0.038 A 
ATOM     24  C   LIG d   1      15.205 134.164  -3.272  0.00  0.00     0.053 A 
ATOM     25  C   LIG d   1      14.052 134.554  -3.955  0.00  0.00     0.036 A 
ATOM     26 CL   LIG d   1      13.835 136.237  -4.259  0.00  0.00    -0.084 Cl
ATOM     27  C   LIG d   1      13.125 133.575  -4.368  0.00  0.00     0.024 A 
ATOM     28  C   LIG d   1      13.366 132.204  -4.093  0.00  0.00     0.004 A 
ATOM     29  C   LIG d   1      14.541 131.817  -3.408  0.00  0.00     0.030 A 
ENDBRANCH  20  23
ENDBRANCH  15  16
ENDBRANCH  14  15
ENDBRANCH   9  10
ENDBRANCH   1   9
TORSDOF 5
ENDMDL
MODEL 3
REMARK VINA RESULT:   -11.773      2.372      4.958
REMARK ITER + INTRA:          -14.893
REMARK INTER:                 -13.265
REMARK INTRA:                  -1.628
REMARK CONF_INDEPENDENT:        1.492
REMARK UNBOUND:                 1.628
REMARK  5 active torsions:
REMARK  status: ('A' for Active; 'I' for Inactive)
REMARK    1  A    between atoms: C_15  and  N_1 
REMARK    2  A    between atoms: N_4  and  C_8 
REMARK    3  A    between atoms: C_16  and  C_15 
REMARK    4  A    between atoms: N_20  and  C_21 
REMARK    5  A    between atoms: C_22  and  C_21 
ROOT
ATOM      1  C   LIG d   1      19.264 134.712  -1.249  0.00  0.00    -0.040 A 
ATOM      2  C   LIG d   1      18.032 134.412  -0.653  0.00  0.00     0.010 A 
ATOM      3  C   LIG d   1      17.961 134.024   0.689  0.00  0.00     0.023 A 
ATOM      4  C   LIG d   1      19.137 133.924   1.469  0.00  0.00     0.044 A 
ATOM      5  C   LIG d   1      20.363 134.211   0.897  0.00  0.00     0.023 A 
ATOM      6  C   LIG d   1      20.433 134.604  -0.460  0.00  0.00     0.010 A 
ATOM      7  C   LIG d   1      19.063 133.566   2.746  0.00  0.00     0.099 C 
ATOM      8  N   LIG d   1      19.002 133.251   3.874  0.00  0.00    -0.191 NA
ENDROOT
BRANCH   1   9
ATOM      9  C   LIG d   1      19.356 135.150  -2.717  0.00  0.00     0.168 C 
BRANCH   9  10
ATOM     10  N   LIG d   1      20.694 134.959  -3.324  0.00  0.00    -0.338 N 
ATOM     11  C   LIG d   1      21.344 135.928  -3.941  0.00  0.00     0.209 A 
ATOM     12  N   LIG d   1      22.560 135.425  -4.388  0.00  0.00    -0.254 NA
ATOM     13  C   LIG d   1      22.617 134.045  -3.998  0.00  0.00     0.144 A 
ATOM     14  C   LIG d   1      21.454 133.824  -3.354  0.00  0.00     0.058 A 
BRANCH  14  15
ATOM     15  C   LIG d   1      20.987 132.510  -2.731  0.00  0.00     0.331 C 
BRANCH  15  16
ATOM     16  N   LIG d   1      19.563 132.334  -3.019  0.00  0.00     0.104 N 
ATOM     17  C   LIG d   1      19.049 131.444  -1.969  0.00  0.00     0.375 C 
ATOM     18  C   LIG d   1      17.490 131.445  -1.978  0.00  0.00     0.253 C 
ATOM     19  O   LIG d   1      16.879 131.062  -1.000  0.00  0.00    -0.271 OA
ATOM     20  N   LIG d   1      16.820 131.898  -3.120  0.00  0.00    -0.315 N 
ATOM     21  C   LIG d   1      17.624 132.347  -4.259  0.00  0.00     0.162 C 
ATOM     22  C   LIG d   1      19.110 131.967  -4.364  0.00  0.00     0.293 C 
BRANCH  20  23
ATOM     23  C   LIG d   1      15.449 131.952  -3.239  0.00  0.00     0.038 A 
ATOM     24  C   LIG d   1      14.966 133.137  -3.773  0.00  0.00     0.053 A 
ATOM     25  C   LIG d   1      13.600 133.349  -3.969  0.00  0.00     0.036 A 
ATOM     26 CL   LIG d   1      13.116 134.857  -4.652  0.00  0.00    -0.084 Cl
ATOM     27  C   LIG d   1      12.682 132.340  -3.612  0.00  0.00     0.024 A 
ATOM     28  C   LIG d   1      13.145 131.118  -3.061  0.00  0.00     0.004 A 
ATOM     29  C   LIG d   1      14.531 130.908  -2.873  0.00  0.00     0.030 A 
ENDBRANCH  20  23
ENDBRANCH  15  16
ENDBRANCH  14  15
ENDBRANCH   9  10
ENDBRANCH   1   9
TORSDOF 5
ENDMDL
MODEL 4
REMARK VINA RESULT:   -11.704      2.081      3.070
REMARK ITER + INTRA:          -14.719
REMARK INTER:                 -13.196
REMARK INTRA:                  -1.523
REMARK CONF_INDEPENDENT:        1.492
REMARK UNBOUND:                 1.523
REMARK  5 active torsions:
REMARK  status: ('A' for Active; 'I' for Inactive)
REMARK    1  A    between atoms: C_15  and  N_1 
REMARK    2  A    between atoms: N_4  and  C_8 
REMARK    3  A    between atoms: C_16  and  C_15 
REMARK    4  A    between atoms: N_20  and  C_21 
REMARK    5  A    between atoms: C_22  and  C_21 
ROOT
ATOM      1  C   LIG d   1      21.472 134.919  -0.019  0.00  0.00    -0.040 A 
ATOM      2  C   LIG d   1      22.165 134.275  -1.053  0.00  0.00     0.010 A 
ATOM      3  C   LIG d   1      21.910 134.590  -2.391  0.00  0.00     0.023 A 
ATOM      4  C   LIG d   1      20.942 135.567  -2.726  0.00  0.00     0.044 A 
ATOM      5  C   LIG d   1      20.245 136.210  -1.719  0.00  0.00     0.023 A 
ATOM      6  C   LIG d   1      20.504 135.890  -0.366  0.00  0.00     0.010 A 
ATOM      7  C   LIG d   1      20.713 135.872  -3.998  0.00  0.00     0.099 C 
ATOM      8  N   LIG d   1      20.507 136.143  -5.120  0.00  0.00    -0.191 NA
ENDROOT
BRANCH   1   9
ATOM      9  C   LIG d   1      21.749 134.591   1.455  0.00  0.00     0.168 C 
BRANCH   9  10
ATOM     10  N   LIG d   1      20.720 133.732   2.087  0.00  0.00    -0.338 N 
ATOM     11  C   LIG d   1      20.259 133.948   3.305  0.00  0.00     0.209 A 
ATOM     12  N   LIG d   1      19.312 132.974   3.594  0.00  0.00    -0.254 NA
ATOM     13  C   LIG d   1      19.218 132.120   2.445  0.00  0.00     0.144 A 
ATOM     14  C   LIG d   1      20.098 132.635   1.564  0.00  0.00     0.058 A 
BRANCH  14  15
ATOM     15  C   LIG d   1      20.408 132.107   0.165  0.00  0.00     0.331 C 
BRANCH  15  16
ATOM     16  N   LIG d   1      19.237 132.319  -0.687  0.00  0.00     0.104 N 
ATOM     17  C   LIG d   1      19.693 132.074  -2.062  0.00  0.00     0.375 C 
ATOM     18  C   LIG d   1      18.470 131.949  -3.020  0.00  0.00     0.253 C 
ATOM     19  O   LIG d   1      18.602 131.417  -4.105  0.00  0.00    -0.271 OA
ATOM     20  N   LIG d   1      17.231 132.450  -2.606  0.00  0.00    -0.315 N 
ATOM     21  C   LIG d   1      17.147 133.076  -1.284  0.00  0.00     0.162 C 
ATOM     22  C   LIG d   1      18.421 133.529  -0.552  0.00  0.00     0.293 C 
BRANCH  20  23
ATOM     23  C   LIG d   1      16.081 132.388  -3.362  0.00  0.00     0.038 A 
ATOM     24  C   LIG d   1      15.021 131.744  -2.743  0.00  0.00     0.053 A 
ATOM     25  C   LIG d   1      13.782 131.605  -3.370  0.00  0.00     0.036 A 
ATOM     26 CL   LIG d   1      12.533 130.796  -2.499  0.00  0.00    -0.084 Cl
ATOM     27  C   LIG d   1      13.597 132.125  -4.668  0.00  0.00     0.024 A 
ATOM     28  C   LIG d   1      14.664 132.787  -5.328  0.00  0.00     0.004 A 
ATOM     29  C   LIG d   1      15.914 132.931  -4.683  0.00  0.00     0.030 A 
ENDBRANCH  20  23
ENDBRANCH  15  16
ENDBRANCH  14  15
ENDBRANCH   9  10
ENDBRANCH   1   9
TORSDOF 5
ENDMDL
MODEL 5
REMARK VINA RESULT:   -11.544      2.739      4.435
REMARK ITER + INTRA:          -14.571
REMARK INTER:                 -13.036
REMARK INTRA:                  -1.535
REMARK CONF_INDEPENDENT:        1.492
REMARK UNBOUND:                 1.535
REMARK  5 active torsions:
REMARK  status: ('A' for Active; 'I' for Inactive)
REMARK    1  A    between atoms: C_15  and  N_1 
REMARK    2  A    between atoms: N_4  and  C_8 
REMARK    3  A    between atoms: C_16  and  C_15 
REMARK    4  A    between atoms: N_20  and  C_21 
REMARK    5  A    between atoms: C_22  and  C_21 
ROOT
ATOM      1  C   LIG d   1      17.659 133.452  -0.766  0.00  0.00    -0.040 A 
ATOM      2  C   LIG d   1      17.700 132.059  -0.916  0.00  0.00     0.010 A 
ATOM      3  C   LIG d   1      16.709 131.386  -1.637  0.00  0.00     0.023 A 
ATOM      4  C   LIG d   1      15.642 132.103  -2.229  0.00  0.00     0.044 A 
ATOM      5  C   LIG d   1      15.582 133.477  -2.089  0.00  0.00     0.023 A 
ATOM      6  C   LIG d   1      16.585 134.157  -1.358  0.00  0.00     0.010 A 
ATOM      7  C   LIG d   1      14.710 131.460  -2.924  0.00  0.00     0.099 C 
ATOM      8  N   LIG d   1      13.886 130.897  -3.538  0.00  0.00    -0.191 NA
ENDROOT
BRANCH   1   9
ATOM      9  C   LIG d   1      18.746 134.204   0.014  0.00  0.00     0.168 C 
BRANCH   9  10
ATOM     10  N   LIG d   1      19.048 133.622   1.344  0.00  0.00    -0.338 N 
ATOM     11  C   LIG d   1      18.372 133.937   2.432  0.00  0.00     0.209 A 
ATOM     12  N   LIG d   1      18.900 133.222   3.499  0.00  0.00    -0.254 NA
ATOM     13  C   LIG d   1      19.977 132.425   2.984  0.00  0.00     0.144 A 
ATOM     14  C   LIG d   1      20.014 132.713   1.667  0.00  0.00     0.058 A 
BRANCH  14  15
ATOM     15  C   LIG d   1      20.982 132.143   0.633  0.00  0.00     0.331 C 
BRANCH  15  16
ATOM     16  N   LIG d   1      20.976 133.012  -0.544  0.00  0.00     0.104 N 
ATOM     17  C   LIG d   1      20.786 132.123  -1.699  0.00  0.00     0.375 C 
ATOM     18  C   LIG d   1      20.437 132.956  -2.968  0.00  0.00     0.253 C 
ATOM     19  O   LIG d   1      19.915 132.415  -3.924  0.00  0.00    -0.271 OA
ATOM     20  N   LIG d   1      20.729 134.324  -2.982  0.00  0.00    -0.315 N 
ATOM     21  C   LIG d   1      21.358 134.907  -1.794  0.00  0.00     0.162 C 
ATOM     22  C   LIG d   1      22.034 134.007  -0.746  0.00  0.00     0.293 C 
BRANCH  20  23
ATOM     23  C   LIG d   1      20.460 135.161  -4.042  0.00  0.00     0.038 A 
ATOM     24  C   LIG d   1      19.115 135.274  -4.357  0.00  0.00     0.053 A 
ATOM     25  C   LIG d   1      18.673 136.089  -5.400  0.00  0.00     0.036 A 
ATOM     26 CL   LIG d   1      16.975 136.161  -5.692  0.00  0.00    -0.084 Cl
ATOM     27  C   LIG d   1      19.612 136.816  -6.161  0.00  0.00     0.024 A 
ATOM     28  C   LIG d   1      20.996 136.719  -5.864  0.00  0.00     0.004 A 
ATOM     29  C   LIG d   1      21.435 135.897  -4.801  0.00  0.00     0.030 A 
ENDBRANCH  20  23
ENDBRANCH  15  16
ENDBRANCH  14  15
ENDBRANCH   9  10
ENDBRANCH   1   9
TORSDOF 5
ENDMDL
MODEL 6
REMARK VINA RESULT:   -11.440      1.613      3.356
REMARK ITER + INTRA:          -15.414
REMARK INTER:                 -12.932
REMARK INTRA:                  -2.482
REMARK CONF_INDEPENDENT:        1.492
REMARK UNBOUND:                 2.482
REMARK  5 active torsions:
REMARK  status: ('A' for Active; 'I' for Inactive)
REMARK    1  A    between atoms: C_15  and  N_1 
REMARK    2  A    between atoms: N_4  and  C_8 
REMARK    3  A    between atoms: C_16  and  C_15 
REMARK    4  A    between atoms: N_20  and  C_21 
REMARK    5  A    between atoms: C_22  and  C_21 
ROOT
ATOM      1  C   LIG d   1      18.410 135.342  -0.068  0.00  0.00    -0.040 A 
ATOM      2  C   LIG d   1      17.234 134.670   0.293  0.00  0.00     0.010 A 
ATOM      3  C   LIG d   1      16.119 134.673  -0.552  0.00  0.00     0.023 A 
ATOM      4  C   LIG d   1      16.160 135.359  -1.789  0.00  0.00     0.044 A 
ATOM      5  C   LIG d   1      17.311 136.032  -2.159  0.00  0.00     0.023 A 
ATOM      6  C   LIG d   1      18.437 136.028  -1.304  0.00  0.00     0.010 A 
ATOM      7  C   LIG d   1      15.103 135.349  -2.593  0.00  0.00     0.099 C 
ATOM      8  N   LIG d   1      14.173 135.342  -3.306  0.00  0.00    -0.191 NA
ENDROOT
BRANCH   1   9
ATOM      9  C   LIG d   1      19.644 135.337   0.846  0.00  0.00     0.168 C 
BRANCH   9  10
ATOM     10  N   LIG d   1      19.738 134.152   1.731  0.00  0.00    -0.338 N 
ATOM     11  C   LIG d   1      19.213 134.121   2.941  0.00  0.00     0.209 A 
ATOM     12  N   LIG d   1      19.472 132.876   3.500  0.00  0.00    -0.254 NA
ATOM     13  C   LIG d   1      20.214 132.122   2.530  0.00  0.00     0.144 A 
ATOM     14  C   LIG d   1      20.340 132.953   1.476  0.00  0.00     0.058 A 
BRANCH  14  15
ATOM     15  C   LIG d   1      21.054 132.659   0.159  0.00  0.00     0.331 C 
BRANCH  15  16
ATOM     16  N   LIG d   1      20.055 132.576  -0.908  0.00  0.00     0.104 N 
ATOM     17  C   LIG d   1      19.126 131.511  -0.506  0.00  0.00     0.375 C 
ATOM     18  C   LIG d   1      17.845 131.552  -1.392  0.00  0.00     0.253 C 
ATOM     19  O   LIG d   1      16.830 131.000  -1.015  0.00  0.00    -0.271 OA
ATOM     20  N   LIG d   1      17.888 132.233  -2.613  0.00  0.00    -0.315 N 
ATOM     21  C   LIG d   1      19.146 132.875  -3.001  0.00  0.00     0.162 C 
ATOM     22  C   LIG d   1      20.466 132.488  -2.313  0.00  0.00     0.293 C 
BRANCH  20  23
ATOM     23  C   LIG d   1      16.819 132.342  -3.474  0.00  0.00     0.038 A 
ATOM     24  C   LIG d   1      15.588 132.062  -2.901  0.00  0.00     0.053 A 
ATOM     25  C   LIG d   1      14.404 132.135  -3.635  0.00  0.00     0.036 A 
ATOM     26 CL   LIG d   1      12.931 131.776  -2.812  0.00  0.00    -0.084 Cl
ATOM     27  C   LIG d   1      14.451 132.497  -4.997  0.00  0.00     0.024 A 
ATOM     28  C   LIG d   1      15.695 132.787  -5.614  0.00  0.00     0.004 A 
ATOM     29  C   LIG d   1      16.890 132.718  -4.861  0.00  0.00     0.030 A 
ENDBRANCH  20  23
ENDBRANCH  15  16
ENDBRANCH  14  15
ENDBRANCH   9  10
ENDBRANCH   1   9
TORSDOF 5
ENDMDL
MODEL 7
REMARK VINA RESULT:   -11.063      2.900      5.502
REMARK ITER + INTRA:          -14.830
REMARK INTER:                 -12.555
REMARK INTRA:                  -2.276
REMARK CONF_INDEPENDENT:        1.492
REMARK UNBOUND:                 2.276
REMARK  5 active torsions:
REMARK  status: ('A' for Active; 'I' for Inactive)
REMARK    1  A    between atoms: C_15  and  N_1 
REMARK    2  A    between atoms: N_4  and  C_8 
REMARK    3  A    between atoms: C_16  and  C_15 
REMARK    4  A    between atoms: N_20  and  C_21 
REMARK    5  A    between atoms: C_22  and  C_21 
ROOT
ATOM      1  C   LIG d   1      20.376 132.642  -1.274  0.00  0.00    -0.040 A 
ATOM      2  C   LIG d   1      19.989 131.541  -0.498  0.00  0.00     0.010 A 
ATOM      3  C   LIG d   1      19.665 131.696   0.854  0.00  0.00     0.023 A 
ATOM      4  C   LIG d   1      19.726 132.972   1.463  0.00  0.00     0.044 A 
ATOM      5  C   LIG d   1      20.110 134.069   0.714  0.00  0.00     0.023 A 
ATOM      6  C   LIG d   1      20.437 133.911  -0.653  0.00  0.00     0.010 A 
ATOM      7  C   LIG d   1      19.405 133.116   2.744  0.00  0.00     0.099 C 
ATOM      8  N   LIG d   1      19.123 133.248   3.874  0.00  0.00    -0.191 NA
ENDROOT
BRANCH   1   9
ATOM      9  C   LIG d   1      20.724 132.487  -2.761  0.00  0.00     0.168 C 
BRANCH   9  10
ATOM     10  N   LIG d   1      21.342 133.691  -3.367  0.00  0.00    -0.338 N 
ATOM     11  C   LIG d   1      22.628 133.965  -3.258  0.00  0.00     0.209 A 
ATOM     12  N   LIG d   1      22.882 135.152  -3.935  0.00  0.00    -0.254 NA
ATOM     13  C   LIG d   1      21.634 135.604  -4.480  0.00  0.00     0.144 A 
ATOM     14  C   LIG d   1      20.738 134.671  -4.101  0.00  0.00     0.058 A 
BRANCH  14  15
ATOM     15  C   LIG d   1      19.243 134.660  -4.408  0.00  0.00     0.331 C 
BRANCH  15  16
ATOM     16  N   LIG d   1      18.521 135.182  -3.247  0.00  0.00     0.104 N 
ATOM     17  C   LIG d   1      17.593 134.117  -2.840  0.00  0.00     0.375 C 
ATOM     18  C   LIG d   1      17.008 134.424  -1.429  0.00  0.00     0.253 C 
ATOM     19  O   LIG d   1      16.505 133.531  -0.774  0.00  0.00    -0.271 OA
ATOM     20  N   LIG d   1      17.079 135.731  -0.935  0.00  0.00    -0.315 N 
ATOM     21  C   LIG d   1      17.700 136.754  -1.780  0.00  0.00     0.162 C 
ATOM     22  C   LIG d   1      17.900 136.509  -3.285  0.00  0.00     0.293 C 
BRANCH  20  23
ATOM     23  C   LIG d   1      16.604 136.117   0.298  0.00  0.00     0.038 A 
ATOM     24  C   LIG d   1      15.415 136.830   0.258  0.00  0.00     0.053 A 
ATOM     25  C   LIG d   1      14.795 137.288   1.421  0.00  0.00     0.036 A 
ATOM     26 CL   LIG d   1      13.313 138.153   1.249  0.00  0.00    -0.084 Cl
ATOM     27  C   LIG d   1      15.389 137.027   2.674  0.00  0.00     0.024 A 
ATOM     28  C   LIG d   1      16.606 136.303   2.748  0.00  0.00     0.004 A 
ATOM     29  C   LIG d   1      17.224 135.836   1.565  0.00  0.00     0.030 A 
ENDBRANCH  20  23
ENDBRANCH  15  16
ENDBRANCH  14  15
ENDBRANCH   9  10
ENDBRANCH   1   9
TORSDOF 5
ENDMDL
MODEL 8
REMARK VINA RESULT:   -10.971      2.006      3.594
REMARK ITER + INTRA:          -15.229
REMARK INTER:                 -12.463
REMARK INTRA:                  -2.767
REMARK CONF_INDEPENDENT:        1.492
REMARK UNBOUND:                 2.767
REMARK  5 active torsions:
REMARK  status: ('A' for Active; 'I' for Inactive)
REMARK    1  A    between atoms: C_15  and  N_1 
REMARK    2  A    between atoms: N_4  and  C_8 
REMARK    3  A    between atoms: C_16  and  C_15 
REMARK    4  A    between atoms: N_20  and  C_21 
REMARK    5  A    between atoms: C_22  and  C_21 
ROOT
ATOM      1  C   LIG d   1      17.977 135.397  -0.125  0.00  0.00    -0.040 A 
ATOM      2  C   LIG d   1      16.807 134.670   0.135  0.00  0.00     0.010 A 
ATOM      3  C   LIG d   1      15.740 134.681  -0.769  0.00  0.00     0.023 A 
ATOM      4  C   LIG d   1      15.823 135.432  -1.966  0.00  0.00     0.044 A 
ATOM      5  C   LIG d   1      16.968 136.159  -2.238  0.00  0.00     0.023 A 
ATOM      6  C   LIG d   1      18.046 136.146  -1.322  0.00  0.00     0.010 A 
ATOM      7  C   LIG d   1      14.812 135.429  -2.827  0.00  0.00     0.099 C 
ATOM      8  N   LIG d   1      13.922 135.430  -3.590  0.00  0.00    -0.191 NA
ENDROOT
BRANCH   1   9
ATOM      9  C   LIG d   1      19.159 135.384   0.854  0.00  0.00     0.168 C 
BRANCH   9  10
ATOM     10  N   LIG d   1      19.207 134.189   1.729  0.00  0.00    -0.338 N 
ATOM     11  C   LIG d   1      18.723 134.183   2.956  0.00  0.00     0.209 A 
ATOM     12  N   LIG d   1      18.922 132.920   3.500  0.00  0.00    -0.254 NA
ATOM     13  C   LIG d   1      19.581 132.128   2.501  0.00  0.00     0.144 A 
ATOM     14  C   LIG d   1      19.724 132.957   1.448  0.00  0.00     0.058 A 
BRANCH  14  15
ATOM     15  C   LIG d   1      20.372 132.628   0.105  0.00  0.00     0.331 C 
BRANCH  15  16
ATOM     16  N   LIG d   1      19.327 132.558  -0.917  0.00  0.00     0.104 N 
ATOM     17  C   LIG d   1      18.521 131.375  -0.586  0.00  0.00     0.375 C 
ATOM     18  C   LIG d   1      17.193 131.383  -1.403  0.00  0.00     0.253 C 
ATOM     19  O   LIG d   1      16.254 130.702  -1.040  0.00  0.00    -0.271 OA
ATOM     20  N   LIG d   1      17.106 132.186  -2.546  0.00  0.00    -0.315 N 
ATOM     21  C   LIG d   1      18.278 132.980  -2.922  0.00  0.00     0.162 C 
ATOM     22  C   LIG d   1      19.663 132.652  -2.340  0.00  0.00     0.293 C 
BRANCH  20  23
ATOM     23  C   LIG d   1      15.985 132.279  -3.340  0.00  0.00     0.038 A 
ATOM     24  C   LIG d   1      16.217 132.802  -4.603  0.00  0.00     0.053 A 
ATOM     25  C   LIG d   1      15.189 132.955  -5.533  0.00  0.00     0.036 A 
ATOM     26 CL   LIG d   1      15.599 133.605  -7.077  0.00  0.00    -0.084 Cl
ATOM     27  C   LIG d   1      13.875 132.575  -5.187  0.00  0.00     0.024 A 
ATOM     28  C   LIG d   1      13.605 132.039  -3.901  0.00  0.00     0.004 A 
ATOM     29  C   LIG d   1      14.654 131.880  -2.967  0.00  0.00     0.030 A 
ENDBRANCH  20  23
ENDBRANCH  15  16
ENDBRANCH  14  15
ENDBRANCH   9  10
ENDBRANCH   1   9
TORSDOF 5
ENDMDL
MODEL 9
REMARK VINA RESULT:   -10.756      2.162      3.466
REMARK ITER + INTRA:          -14.913
REMARK INTER:                 -12.248
REMARK INTRA:                  -2.665
REMARK CONF_INDEPENDENT:        1.492
REMARK UNBOUND:                 2.665
REMARK  5 active torsions:
REMARK  status: ('A' for Active; 'I' for Inactive)
REMARK    1  A    between atoms: C_15  and  N_1 
REMARK    2  A    between atoms: N_4  and  C_8 
REMARK    3  A    between atoms: C_16  and  C_15 
REMARK    4  A    between atoms: N_20  and  C_21 
REMARK    5  A    between atoms: C_22  and  C_21 
ROOT
ATOM      1  C   LIG d   1      18.016 132.115  -0.625  0.00  0.00    -0.040 A 
ATOM      2  C   LIG d   1      17.605 133.432  -0.380  0.00  0.00     0.010 A 
ATOM      3  C   LIG d   1      16.544 133.997  -1.096  0.00  0.00     0.023 A 
ATOM      4  C   LIG d   1      15.868 133.245  -2.086  0.00  0.00     0.044 A 
ATOM      5  C   LIG d   1      16.263 131.945  -2.345  0.00  0.00     0.023 A 
ATOM      6  C   LIG d   1      17.336 131.375  -1.620  0.00  0.00     0.010 A 
ATOM      7  C   LIG d   1      14.853 133.781  -2.755  0.00  0.00     0.099 C 
ATOM      8  N   LIG d   1      13.957 134.251  -3.347  0.00  0.00    -0.191 NA
ENDROOT
BRANCH   1   9
ATOM      9  C   LIG d   1      19.172 131.480   0.161  0.00  0.00     0.168 C 
BRANCH   9  10
ATOM     10  N   LIG d   1      19.506 132.185   1.421  0.00  0.00    -0.338 N 
ATOM     11  C   LIG d   1      18.753 132.112   2.502  0.00  0.00     0.209 A 
ATOM     12  N   LIG d   1      19.342 132.878   3.500  0.00  0.00    -0.254 NA
ATOM     13  C   LIG d   1      20.538 133.446   2.947  0.00  0.00     0.144 A 
ATOM     14  C   LIG d   1      20.581 132.985   1.681  0.00  0.00     0.058 A 
BRANCH  14  15
ATOM     15  C   LIG d   1      21.650 133.286   0.634  0.00  0.00     0.331 C 
BRANCH  15  16
ATOM     16  N   LIG d   1      20.992 133.743  -0.591  0.00  0.00     0.104 N 
ATOM     17  C   LIG d   1      21.495 132.875  -1.665  0.00  0.00     0.375 C 
ATOM     18  C   LIG d   1      20.627 133.049  -2.947  0.00  0.00     0.253 C 
ATOM     19  O   LIG d   1      20.651 132.197  -3.815  0.00  0.00    -0.271 OA
ATOM     20  N   LIG d   1      19.825 134.188  -3.074  0.00  0.00    -0.315 N 
ATOM     21  C   LIG d   1      19.846 135.170  -1.987  0.00  0.00     0.162 C 
ATOM     22  C   LIG d   1      20.982 135.164  -0.951  0.00  0.00     0.293 C 
BRANCH  20  23
ATOM     23  C   LIG d   1      19.013 134.445  -4.156  0.00  0.00     0.038 A 
ATOM     24  C   LIG d   1      18.153 133.409  -4.487  0.00  0.00     0.053 A 
ATOM     25  C   LIG d   1      17.258 133.511  -5.553  0.00  0.00     0.036 A 
ATOM     26 CL   LIG d   1      16.228 132.163  -5.863  0.00  0.00    -0.084 Cl
ATOM     27  C   LIG d   1      17.225 134.693  -6.321  0.00  0.00     0.024 A 
ATOM     28  C   LIG d   1      18.094 135.770  -6.009  0.00  0.00     0.004 A 
ATOM     29  C   LIG d   1      18.992 135.661  -4.923  0.00  0.00     0.030 A 
ENDBRANCH  20  23
ENDBRANCH  15  16
ENDBRANCH  14  15
ENDBRANCH   9  10
ENDBRANCH   1   9
TORSDOF 5
ENDMDL
