REMARK  1 active torsions:
REMARK  status: ('A' for Active; 'I' for Inactive)
REMARK    1  A    between atoms: C6_2  and  C2_7 
ROOT
HETATM    1  N2  NCT E1206      84.745  70.544 -11.145  1.00 22.84    -0.067 N 
HETATM    2  C6  NCT E1206      84.250  69.161 -10.851  1.00 23.21     0.222 C 
HETATM    3  C7  NCT E1206      85.395  68.443 -10.175  1.00 24.64     0.040 C 
HETATM    4  C8  NCT E1206      86.638  69.290 -10.370  1.00 22.89     0.030 C 
HETATM    5  C9  NCT E1206      86.171  70.646 -10.849  1.00 23.46     0.235 C 
HETATM    6  H01 NCT E1206      84.202  71.179 -10.578  1.00 22.84     0.280 HD
HETATM    7  W   WAT X  99      83.126  72.437  -9.455  1.00 10.00     0.000 W
HETATM    8  C10 NCT E1206      84.606  70.850 -12.580  1.00 20.24     0.270 C 
ENDROOT
BRANCH 2 9
HETATM    9  C2  NCT E1206      83.036  69.215  -9.978  1.00 22.63    -0.010 A 
HETATM   10  C3  NCT E1206      82.049  68.250 -10.090  1.00 22.92     0.012 A 
HETATM   11  C4  NCT E1206      80.912  68.331  -9.282  1.00 23.20     0.020 A 
HETATM   12  C5  NCT E1206      80.762  69.394  -8.383  1.00 23.65     0.116 A 
HETATM   13  N1  NCT E1206      81.721  70.332  -8.284  1.00 23.15    -0.273 NA
HETATM   14  W   WAT X  99      81.387  72.601  -6.350  1.00 10.00     0.000 W
HETATM   15  C1  NCT E1206      82.829  70.253  -9.053  1.00 24.23     0.125 A 
ENDBRANCH 2 9
TORSDOF 1
